ZINC001211849142
                    3D
 Schrodinger Suite 2019-4.
 45 49  0  0  1  0            999 V2000
    6.8387   -2.5163   -0.3315 C   0  0  0  0  0  0
    5.7415   -2.4345   -1.0513 N   0  0  0  0  0  0
    5.0505   -1.2793   -0.7148 C   0  0  0  0  0  0
    3.7992   -0.8796   -1.2339 C   0  0  0  0  0  0
    3.1520    0.2593   -0.7240 C   0  0  0  0  0  0
    1.7615    0.5443   -1.0641 C   0  0  0  0  0  0
    1.1352    0.1058   -2.1702 N   0  0  0  0  0  0
   -0.1952    0.4716   -1.9579 O   0  0  0  0  0  0
   -0.2560    1.0540   -0.7232 C   0  0  0  0  0  0
   -1.6144    1.3920   -0.1780 C   0  0  2  0  0  0
   -1.5581    2.6906    0.6554 C   0  0  0  0  0  0
   -1.2306    2.3969    2.1204 C   0  0  0  0  0  0
   -2.2590    1.4547    2.7516 C   0  0  0  0  0  0
   -2.1700    0.1944    0.6709 C   0  0  2  0  0  0
   -2.9237   -0.7948   -0.2227 C   0  0  0  0  0  0
   -2.2227   -1.7365   -0.9998 C   0  0  0  0  0  0
   -2.8915   -2.5496   -1.9191 C   0  0  0  0  0  0
   -4.2760   -2.4765   -2.0431 C   0  0  0  0  0  0
   -4.9895   -1.5820   -1.2562 C   0  0  0  0  0  0
   -4.3189   -0.7369   -0.3653 C   0  0  0  0  0  0
    0.9277    1.1751   -0.1633 N   0  0  0  0  0  0
    3.8074    1.0513    0.2256 C   0  0  0  0  0  0
    5.0730    0.7066    0.7185 C   0  0  0  0  0  0
    5.6590   -0.4805    0.2578 C   0  0  0  0  0  0
    7.1451   -1.2174    0.7407 S   0  0  0  0  0  0
    7.5167   -3.3560   -0.4124 H   0  0  0  0  0  0
    3.3202   -1.5046   -1.9786 H   0  0  0  0  0  0
   -2.2760    1.5968   -1.0305 H   0  0  0  0  0  0
   -0.8452    3.4121    0.2364 H   0  0  0  0  0  0
   -2.5400    3.1842    0.6107 H   0  0  0  0  0  0
   -1.1872    3.3323    2.6905 H   0  0  0  0  0  0
   -0.2361    1.9418    2.1886 H   0  0  0  0  0  0
   -1.7515    0.7569    3.4323 H   0  0  0  0  0  0
   -2.9603    2.0324    3.3667 H   0  0  0  0  0  0
   -1.3518   -0.3585    1.1514 H   0  0  0  0  0  0
   -1.1418   -1.8319   -0.9230 H   0  0  0  0  0  0
   -2.3318   -3.2355   -2.5515 H   0  0  0  0  0  0
   -4.7984   -3.1068   -2.7565 H   0  0  0  0  0  0
   -6.0690   -1.5159   -1.3455 H   0  0  0  0  0  0
   -4.9032   -0.0251    0.2133 H   0  0  0  0  0  0
    3.3211    1.9443    0.6114 H   0  0  0  0  0  0
    5.5562    1.3264    1.4691 H   0  0  0  0  0  0
   -3.0445    0.6894    1.7676 N   0  3  0  0  0  0
   -3.4842   -0.1115    2.2362 H   0  0  0  0  0  0
   -3.7721    1.2959    1.3715 H   0  0  0  0  0  0
  1  2  2  0  0  0
  1 25  1  0  0  0
  1 26  1  0  0  0
  2  3  1  0  0  0
  3  4  2  0  0  0
  3 24  1  0  0  0
  4  5  1  0  0  0
  4 27  1  0  0  0
  5  6  1  0  0  0
  5 22  2  0  0  0
  6  7  2  0  0  0
  6 21  1  0  0  0
  7  8  1  0  0  0
  8  9  1  0  0  0
  9 10  1  0  0  0
  9 21  2  0  0  0
 10 11  1  0  0  0
 10 14  1  0  0  0
 10 28  1  0  0  0
 11 12  1  0  0  0
 11 29  1  0  0  0
 11 30  1  0  0  0
 12 13  1  0  0  0
 12 31  1  0  0  0
 12 32  1  0  0  0
 13 33  1  0  0  0
 13 34  1  0  0  0
 13 43  1  0  0  0
 14 15  1  0  0  0
 14 35  1  0  0  0
 14 43  1  0  0  0
 15 16  2  0  0  0
 15 20  1  0  0  0
 16 17  1  0  0  0
 16 36  1  0  0  0
 17 18  2  0  0  0
 17 37  1  0  0  0
 18 19  1  0  0  0
 18 38  1  0  0  0
 19 20  2  0  0  0
 19 39  1  0  0  0
 20 40  1  0  0  0
 22 23  1  0  0  0
 22 41  1  0  0  0
 23 24  2  0  0  0
 23 42  1  0  0  0
 24 25  1  0  0  0
 43 44  1  0  0  0
 43 45  1  0  0  0
M  CHG  1  43   1
M  END
> <energy>
61.6422

> <i_ionizer_Ion_state_n>
1

> <i_ionizer_Tot_Q>
1

> <s_ionizer_Ion_centers>
43

> <s_ionizer_Ion_types>
N5

> <s_ionizer_Ion_ctrs_in>
14

> <r_ionizer_Ionization_penalty>
0.000148807

> <r_ionizer_Ionization_penalty_charging>
0.000148807

> <r_ionizer_Ionization_penalty_neutral>
0

$$$$
ZINC001211849146
                    3D
 Schrodinger Suite 2019-4.
 45 49  0  0  1  0            999 V2000
    4.7282    3.8565   -3.0188 C   0  0  0  0  0  0
    4.2013    2.6790   -3.2578 N   0  0  0  0  0  0
    3.7031    2.1462   -2.0777 C   0  0  0  0  0  0
    3.0244    0.9204   -1.9467 C   0  0  0  0  0  0
    2.4985    0.5245   -0.7042 C   0  0  0  0  0  0
    1.6614   -0.6657   -0.6088 C   0  0  0  0  0  0
    1.6444   -1.6385   -1.5328 N   0  0  0  0  0  0
    0.5699   -2.4362   -1.1597 O   0  0  0  0  0  0
    0.0381   -1.8668   -0.0406 C   0  0  0  0  0  0
   -1.2829   -2.4056    0.4060 C   0  0  1  0  0  0
   -1.1050   -3.5239    1.4467 C   0  0  0  0  0  0
   -0.7688   -2.9782    2.8321 C   0  0  0  0  0  0
   -1.7960   -1.9330    3.2519 C   0  0  0  0  0  0
   -2.2305   -1.2814    0.9324 C   0  0  2  0  0  0
   -2.4327   -0.0751   -0.0050 C   0  0  0  0  0  0
   -2.3027   -0.1758   -1.4029 C   0  0  0  0  0  0
   -2.4556    0.9425   -2.2318 C   0  0  0  0  0  0
   -2.7832    2.1780   -1.6876 C   0  0  0  0  0  0
   -2.9680    2.2970   -0.3132 C   0  0  0  0  0  0
   -2.8020    1.1812    0.5133 C   0  0  0  0  0  0
    0.7247   -0.8331    0.3912 N   0  0  0  0  0  0
    2.7028    1.3379    0.4158 C   0  0  0  0  0  0
    3.4086    2.5423    0.3229 C   0  0  0  0  0  0
    3.8843    2.9375   -0.9385 C   0  0  0  0  0  0
    4.7221    4.3770   -1.3866 S   0  0  0  0  0  0
    5.1447    4.4705   -3.8076 H   0  0  0  0  0  0
    2.8670    0.3146   -2.8349 H   0  0  0  0  0  0
   -1.7578   -2.8709   -0.4701 H   0  0  0  0  0  0
   -2.0474   -4.0842    1.5170 H   0  0  0  0  0  0
   -0.3361   -4.2393    1.1286 H   0  0  0  0  0  0
   -0.7597   -3.7968    3.5585 H   0  0  0  0  0  0
    0.2363   -2.5419    2.8349 H   0  0  0  0  0  0
   -2.7906   -2.3918    3.3481 H   0  0  0  0  0  0
   -1.5357   -1.5307    4.2384 H   0  0  0  0  0  0
   -3.2341   -1.7214    1.0226 H   0  0  0  0  0  0
   -2.0620   -1.1204   -1.8807 H   0  0  0  0  0  0
   -2.3131    0.8409   -3.3042 H   0  0  0  0  0  0
   -2.9088    3.0439   -2.3327 H   0  0  0  0  0  0
   -3.2363    3.2578    0.1199 H   0  0  0  0  0  0
   -2.9577    1.3092    1.5826 H   0  0  0  0  0  0
    2.2930    1.0459    1.3809 H   0  0  0  0  0  0
    3.5529    3.1699    1.1988 H   0  0  0  0  0  0
   -1.8321   -0.8144    2.2958 N   0  3  0  0  0  0
   -2.5107   -0.1165    2.6225 H   0  0  0  0  0  0
   -0.8998   -0.3874    2.2446 H   0  0  0  0  0  0
  1  2  2  0  0  0
  1 25  1  0  0  0
  1 26  1  0  0  0
  2  3  1  0  0  0
  3  4  2  0  0  0
  3 24  1  0  0  0
  4  5  1  0  0  0
  4 27  1  0  0  0
  5  6  1  0  0  0
  5 22  2  0  0  0
  6  7  2  0  0  0
  6 21  1  0  0  0
  7  8  1  0  0  0
  8  9  1  0  0  0
  9 10  1  0  0  0
  9 21  2  0  0  0
 10 11  1  0  0  0
 10 14  1  0  0  0
 10 28  1  0  0  0
 11 12  1  0  0  0
 11 29  1  0  0  0
 11 30  1  0  0  0
 12 13  1  0  0  0
 12 31  1  0  0  0
 12 32  1  0  0  0
 13 33  1  0  0  0
 13 34  1  0  0  0
 13 43  1  0  0  0
 14 15  1  0  0  0
 14 35  1  0  0  0
 14 43  1  0  0  0
 15 16  2  0  0  0
 15 20  1  0  0  0
 16 17  1  0  0  0
 16 36  1  0  0  0
 17 18  2  0  0  0
 17 37  1  0  0  0
 18 19  1  0  0  0
 18 38  1  0  0  0
 19 20  2  0  0  0
 19 39  1  0  0  0
 20 40  1  0  0  0
 22 23  1  0  0  0
 22 41  1  0  0  0
 23 24  2  0  0  0
 23 42  1  0  0  0
 24 25  1  0  0  0
 43 44  1  0  0  0
 43 45  1  0  0  0
M  CHG  1  43   1
M  END
> <energy>
62.7107

> <i_ionizer_Ion_state_n>
1

> <i_ionizer_Tot_Q>
1

> <s_ionizer_Ion_centers>
43

> <s_ionizer_Ion_types>
N5

> <s_ionizer_Ion_ctrs_in>
14

> <r_ionizer_Ionization_penalty>
0.000148807

> <r_ionizer_Ionization_penalty_charging>
0.000148807

> <r_ionizer_Ionization_penalty_neutral>
0

$$$$
ZINC001211849199
                    3D
 Schrodinger Suite 2019-4.
 47 50  0  0  1  0            999 V2000
    6.3056   -1.4751   -2.5633 F   0  0  0  0  0  0
    6.3015   -1.6797   -1.2226 C   0  0  0  0  0  0
    7.4507   -2.3391   -0.9239 F   0  0  0  0  0  0
    6.3512   -0.4176   -0.5684 O   0  0  0  0  0  0
    5.1015    0.0718   -0.3082 C   0  0  0  0  0  0
    4.1376    0.2550   -1.3006 C   0  0  0  0  0  0
    2.8642    0.7197   -0.9539 C   0  0  0  0  0  0
    2.5490    1.0248    0.3792 C   0  0  0  0  0  0
    1.1926    1.4191    0.7515 C   0  0  0  0  0  0
    0.8428    1.8115    1.9884 N   0  0  0  0  0  0
   -0.5469    1.8903    1.9296 O   0  0  0  0  0  0
   -0.9015    1.5539    0.6560 C   0  0  0  0  0  0
   -2.3606    1.3784    0.3926 C   0  0  1  0  0  0
   -2.9338    2.5916   -0.3543 C   0  0  0  0  0  0
   -4.3978    2.3627   -0.7289 C   0  0  0  0  0  0
   -4.6004    1.0393   -1.4649 C   0  0  0  0  0  0
   -2.6266    0.0834   -0.4207 C   0  0  1  0  0  0
   -2.0877   -1.1599    0.2809 C   0  0  0  0  0  0
   -0.9334   -1.7936   -0.2095 C   0  0  0  0  0  0
   -0.3995   -2.9055    0.4410 C   0  0  0  0  0  0
   -1.0146   -3.4026    1.5867 C   0  0  0  0  0  0
   -2.1631   -2.7869    2.0836 C   0  0  0  0  0  0
   -2.6949   -1.6702    1.4373 C   0  0  0  0  0  0
    0.1302    1.3272   -0.1258 N   0  0  0  0  0  0
    3.5509    0.8844    1.3545 C   0  0  0  0  0  0
    4.8236    0.4210    1.0104 C   0  0  0  0  0  0
    5.4471   -2.3040   -0.9331 H   0  0  0  0  0  0
    4.3639    0.0454   -2.3440 H   0  0  0  0  0  0
    2.1151    0.8369   -1.7341 H   0  0  0  0  0  0
   -2.8750    1.3037    1.3610 H   0  0  0  0  0  0
   -2.8491    3.4936    0.2644 H   0  0  0  0  0  0
   -2.3527    2.7812   -1.2669 H   0  0  0  0  0  0
   -5.0092    2.3679    0.1812 H   0  0  0  0  0  0
   -4.7526    3.1894   -1.3542 H   0  0  0  0  0  0
   -4.1294    1.0722   -2.4546 H   0  0  0  0  0  0
   -5.6722    0.8756   -1.6305 H   0  0  0  0  0  0
   -2.1178    0.1634   -1.3924 H   0  0  0  0  0  0
   -0.4297   -1.4043   -1.0928 H   0  0  0  0  0  0
    0.5008   -3.3759    0.0560 H   0  0  0  0  0  0
   -0.5978   -4.2678    2.0941 H   0  0  0  0  0  0
   -2.6422   -3.1752    2.9785 H   0  0  0  0  0  0
   -3.5897   -1.1988    1.8397 H   0  0  0  0  0  0
    3.3407    1.1144    2.3975 H   0  0  0  0  0  0
    5.5843    0.3091    1.7789 H   0  0  0  0  0  0
   -4.0779   -0.0910   -0.6864 N   0  3  0  0  0  0
   -4.5804   -0.1460    0.2073 H   0  0  0  0  0  0
   -4.2223   -0.9597   -1.2143 H   0  0  0  0  0  0
  1  2  1  0  0  0
  2  3  1  0  0  0
  2  4  1  0  0  0
  2 27  1  0  0  0
  4  5  1  0  0  0
  5  6  2  0  0  0
  5 26  1  0  0  0
  6  7  1  0  0  0
  6 28  1  0  0  0
  7  8  2  0  0  0
  7 29  1  0  0  0
  8  9  1  0  0  0
  8 25  1  0  0  0
  9 10  2  0  0  0
  9 24  1  0  0  0
 10 11  1  0  0  0
 11 12  1  0  0  0
 12 13  1  0  0  0
 12 24  2  0  0  0
 13 14  1  0  0  0
 13 17  1  0  0  0
 13 30  1  0  0  0
 14 15  1  0  0  0
 14 31  1  0  0  0
 14 32  1  0  0  0
 15 16  1  0  0  0
 15 33  1  0  0  0
 15 34  1  0  0  0
 16 35  1  0  0  0
 16 36  1  0  0  0
 16 45  1  0  0  0
 17 18  1  0  0  0
 17 37  1  0  0  0
 17 45  1  0  0  0
 18 19  2  0  0  0
 18 23  1  0  0  0
 19 20  1  0  0  0
 19 38  1  0  0  0
 20 21  2  0  0  0
 20 39  1  0  0  0
 21 22  1  0  0  0
 21 40  1  0  0  0
 22 23  2  0  0  0
 22 41  1  0  0  0
 23 42  1  0  0  0
 25 26  2  0  0  0
 25 43  1  0  0  0
 26 44  1  0  0  0
 45 46  1  0  0  0
 45 47  1  0  0  0
M  CHG  1  45   1
M  END
> <energy>
63.5623

> <i_ionizer_Ion_state_n>
1

> <i_ionizer_Tot_Q>
1

> <s_ionizer_Ion_centers>
45

> <s_ionizer_Ion_types>
N5

> <s_ionizer_Ion_ctrs_in>
17

> <r_ionizer_Ionization_penalty>
0.000148807

> <r_ionizer_Ionization_penalty_charging>
0.000148807

> <r_ionizer_Ionization_penalty_neutral>
0

$$$$
ZINC001211849202
                    3D
 Schrodinger Suite 2019-4.
 47 50  0  0  1  0            999 V2000
    7.3568   -0.0051    1.7792 F   0  0  0  0  0  0
    6.8106    1.2125    1.5467 C   0  0  0  0  0  0
    5.8017    1.4101    2.4346 F   0  0  0  0  0  0
    6.3240    1.2708    0.2118 O   0  0  0  0  0  0
    5.1125    0.6721    0.0242 C   0  0  0  0  0  0
    4.7422   -0.5712    0.5584 C   0  0  0  0  0  0
    3.4547   -1.0705    0.3262 C   0  0  0  0  0  0
    2.5667   -0.3767   -0.5065 C   0  0  0  0  0  0
    1.2357   -0.8588   -0.7856 C   0  0  0  0  0  0
    0.6149   -0.6402   -1.9537 N   0  0  0  0  0  0
   -0.6963   -1.0231   -1.7064 O   0  0  0  0  0  0
   -0.7343   -1.4273   -0.4038 C   0  0  0  0  0  0
   -2.0751   -1.6844    0.2079 C   0  0  2  0  0  0
   -2.9300   -2.6504   -0.6318 C   0  0  0  0  0  0
   -4.4340   -2.6296   -0.3073 C   0  0  0  0  0  0
   -4.8423   -1.6731    0.8030 C   0  0  0  0  0  0
   -2.7955   -0.3729    0.6727 C   0  0  1  0  0  0
   -2.2259    0.9359    0.1393 C   0  0  0  0  0  0
   -1.2735    1.6475    0.8869 C   0  0  0  0  0  0
   -0.6976    2.8174    0.3799 C   0  0  0  0  0  0
   -1.0772    3.2946   -0.8713 C   0  0  0  0  0  0
   -2.0231    2.6003   -1.6205 C   0  0  0  0  0  0
   -2.5975    1.4287   -1.1218 C   0  0  0  0  0  0
    0.4453   -1.4558    0.1716 N   0  0  0  0  0  0
    2.9633    0.8545   -1.0542 C   0  0  0  0  0  0
    4.2203    1.3797   -0.7863 C   0  0  0  0  0  0
    7.5630    1.9886    1.7033 H   0  0  0  0  0  0
    5.4293   -1.1613    1.1651 H   0  0  0  0  0  0
    3.1583   -2.0194    0.7775 H   0  0  0  0  0  0
   -1.8625   -2.2360    1.1322 H   0  0  0  0  0  0
   -2.5426   -3.6721   -0.4786 H   0  0  0  0  0  0
   -2.8047   -2.4756   -1.7132 H   0  0  0  0  0  0
   -4.7827   -3.6399   -0.0662 H   0  0  0  0  0  0
   -4.9786   -2.3326   -1.2164 H   0  0  0  0  0  0
   -4.5495   -2.0261    1.7974 H   0  0  0  0  0  0
   -5.9312   -1.5771    0.8167 H   0  0  0  0  0  0
   -2.6447   -0.3418    1.7629 H   0  0  0  0  0  0
   -0.9540    1.2884    1.8633 H   0  0  0  0  0  0
    0.0621    3.3403    0.9556 H   0  0  0  0  0  0
   -0.6235    4.1972   -1.2692 H   0  0  0  0  0  0
   -2.3039    2.9542   -2.6071 H   0  0  0  0  0  0
   -3.3243    0.8892   -1.7239 H   0  0  0  0  0  0
    2.2753    1.4170   -1.6877 H   0  0  0  0  0  0
    4.4870    2.3566   -1.1896 H   0  0  0  0  0  0
   -4.2687   -0.3660    0.4969 N   0  3  0  0  0  0
   -4.4890   -0.1231   -0.4761 H   0  0  0  0  0  0
   -4.6780    0.3350    1.1257 H   0  0  0  0  0  0
  1  2  1  0  0  0
  2  3  1  0  0  0
  2  4  1  0  0  0
  2 27  1  0  0  0
  4  5  1  0  0  0
  5  6  2  0  0  0
  5 26  1  0  0  0
  6  7  1  0  0  0
  6 28  1  0  0  0
  7  8  2  0  0  0
  7 29  1  0  0  0
  8  9  1  0  0  0
  8 25  1  0  0  0
  9 10  2  0  0  0
  9 24  1  0  0  0
 10 11  1  0  0  0
 11 12  1  0  0  0
 12 13  1  0  0  0
 12 24  2  0  0  0
 13 14  1  0  0  0
 13 17  1  0  0  0
 13 30  1  0  0  0
 14 15  1  0  0  0
 14 31  1  0  0  0
 14 32  1  0  0  0
 15 16  1  0  0  0
 15 33  1  0  0  0
 15 34  1  0  0  0
 16 35  1  0  0  0
 16 36  1  0  0  0
 16 45  1  0  0  0
 17 18  1  0  0  0
 17 37  1  0  0  0
 17 45  1  0  0  0
 18 19  2  0  0  0
 18 23  1  0  0  0
 19 20  1  0  0  0
 19 38  1  0  0  0
 20 21  2  0  0  0
 20 39  1  0  0  0
 21 22  1  0  0  0
 21 40  1  0  0  0
 22 23  2  0  0  0
 22 41  1  0  0  0
 23 42  1  0  0  0
 25 26  2  0  0  0
 25 43  1  0  0  0
 26 44  1  0  0  0
 45 46  1  0  0  0
 45 47  1  0  0  0
M  CHG  1  45   1
M  END
> <energy>
81.5963

> <i_ionizer_Ion_state_n>
1

> <i_ionizer_Tot_Q>
1

> <s_ionizer_Ion_centers>
45

> <s_ionizer_Ion_types>
N5

> <s_ionizer_Ion_ctrs_in>
17

> <r_ionizer_Ionization_penalty>
0.000148807

> <r_ionizer_Ionization_penalty_charging>
0.000148807

> <r_ionizer_Ionization_penalty_neutral>
0

$$$$
ZINC001211849203
                    3D
 Schrodinger Suite 2019-4.
 47 50  0  0  1  0            999 V2000
    5.6785    1.2629    3.3950 F   0  0  0  0  0  0
    5.2958    2.4208    2.8003 C   0  0  0  0  0  0
    6.0546    3.4026    3.3503 F   0  0  0  0  0  0
    5.6122    2.3641    1.4104 O   0  0  0  0  0  0
    4.6625    1.6359    0.7464 C   0  0  0  0  0  0
    3.8131    2.3040   -0.1354 C   0  0  0  0  0  0
    2.7885    1.5975   -0.7754 C   0  0  0  0  0  0
    2.6302    0.2221   -0.5412 C   0  0  0  0  0  0
    1.5001   -0.4992   -1.0936 C   0  0  0  0  0  0
    1.1291   -0.4603   -2.3847 N   0  0  0  0  0  0
   -0.0805   -1.1650   -2.3936 O   0  0  0  0  0  0
   -0.3182   -1.5395   -1.1027 C   0  0  0  0  0  0
   -1.6596   -2.1139   -0.7894 C   0  0  1  0  0  0
   -1.6661   -2.8073    0.5830 C   0  0  0  0  0  0
   -3.0370   -3.3986    0.9355 C   0  0  0  0  0  0
   -4.2010   -2.7453    0.1922 C   0  0  0  0  0  0
   -2.8249   -1.0701   -0.9034 C   0  0  2  0  0  0
   -2.4274    0.3977   -0.8131 C   0  0  0  0  0  0
   -1.9125    0.9562    0.3678 C   0  0  0  0  0  0
   -1.4761    2.2812    0.3927 C   0  0  0  0  0  0
   -1.5562    3.0669   -0.7564 C   0  0  0  0  0  0
   -2.1023    2.5376   -1.9225 C   0  0  0  0  0  0
   -2.5353    1.2137   -1.9516 C   0  0  0  0  0  0
    0.6638   -1.2292   -0.2863 N   0  0  0  0  0  0
    3.5291   -0.4448    0.3028 C   0  0  0  0  0  0
    4.5551    0.2588    0.9343 C   0  0  0  0  0  0
    4.2371    2.6258    3.0049 H   0  0  0  0  0  0
    3.9198    3.3732   -0.2957 H   0  0  0  0  0  0
    2.0894    2.1314   -1.4193 H   0  0  0  0  0  0
   -1.8587   -2.9044   -1.5288 H   0  0  0  0  0  0
   -0.9125   -3.6056    0.6062 H   0  0  0  0  0  0
   -1.3712   -2.0973    1.3658 H   0  0  0  0  0  0
   -3.1879   -3.3069    2.0180 H   0  0  0  0  0  0
   -3.0382   -4.4745    0.7169 H   0  0  0  0  0  0
   -4.3586   -3.2240   -0.7807 H   0  0  0  0  0  0
   -5.1262   -2.8941    0.7581 H   0  0  0  0  0  0
   -3.2392   -1.2180   -1.9099 H   0  0  0  0  0  0
   -1.8263    0.3501    1.2666 H   0  0  0  0  0  0
   -1.0597    2.6938    1.3062 H   0  0  0  0  0  0
   -1.2037    4.0931   -0.7386 H   0  0  0  0  0  0
   -2.1744    3.1490   -2.8160 H   0  0  0  0  0  0
   -2.9407    0.8156   -2.8805 H   0  0  0  0  0  0
    3.4179   -1.5112    0.4856 H   0  0  0  0  0  0
    5.2504   -0.2704    1.5826 H   0  0  0  0  0  0
   -3.9599   -1.3138    0.0295 N   0  3  0  0  0  0
   -4.8061   -0.8710   -0.3472 H   0  0  0  0  0  0
   -3.7374   -0.9042    0.9443 H   0  0  0  0  0  0
  1  2  1  0  0  0
  2  3  1  0  0  0
  2  4  1  0  0  0
  2 27  1  0  0  0
  4  5  1  0  0  0
  5  6  2  0  0  0
  5 26  1  0  0  0
  6  7  1  0  0  0
  6 28  1  0  0  0
  7  8  2  0  0  0
  7 29  1  0  0  0
  8  9  1  0  0  0
  8 25  1  0  0  0
  9 10  2  0  0  0
  9 24  1  0  0  0
 10 11  1  0  0  0
 11 12  1  0  0  0
 12 13  1  0  0  0
 12 24  2  0  0  0
 13 14  1  0  0  0
 13 17  1  0  0  0
 13 30  1  0  0  0
 14 15  1  0  0  0
 14 31  1  0  0  0
 14 32  1  0  0  0
 15 16  1  0  0  0
 15 33  1  0  0  0
 15 34  1  0  0  0
 16 35  1  0  0  0
 16 36  1  0  0  0
 16 45  1  0  0  0
 17 18  1  0  0  0
 17 37  1  0  0  0
 17 45  1  0  0  0
 18 19  2  0  0  0
 18 23  1  0  0  0
 19 20  1  0  0  0
 19 38  1  0  0  0
 20 21  2  0  0  0
 20 39  1  0  0  0
 21 22  1  0  0  0
 21 40  1  0  0  0
 22 23  2  0  0  0
 22 41  1  0  0  0
 23 42  1  0  0  0
 25 26  2  0  0  0
 25 43  1  0  0  0
 26 44  1  0  0  0
 45 46  1  0  0  0
 45 47  1  0  0  0
M  CHG  1  45   1
M  END
> <energy>
77.6689

> <i_ionizer_Ion_state_n>
1

> <i_ionizer_Tot_Q>
1

> <s_ionizer_Ion_centers>
45

> <s_ionizer_Ion_types>
N5

> <s_ionizer_Ion_ctrs_in>
17

> <r_ionizer_Ionization_penalty>
0.000148807

> <r_ionizer_Ionization_penalty_charging>
0.000148807

> <r_ionizer_Ionization_penalty_neutral>
0

$$$$
ZINC001211849204
                    3D
 Schrodinger Suite 2019-4.
 47 50  0  0  1  0            999 V2000
    7.3204    3.1237    1.1512 F   0  0  0  0  0  0
    6.0864    2.5705    1.0240 C   0  0  0  0  0  0
    5.2289    3.3561    1.7223 F   0  0  0  0  0  0
    6.1289    1.2826    1.6330 O   0  0  0  0  0  0
    5.0292    0.5648    1.2570 C   0  0  0  0  0  0
    5.0961   -0.2395    0.1218 C   0  0  0  0  0  0
    3.9605   -0.9377   -0.2939 C   0  0  0  0  0  0
    2.7592   -0.8432    0.4295 C   0  0  0  0  0  0
    1.5412   -1.4738   -0.0623 C   0  0  0  0  0  0
    1.5075   -2.4063   -1.0272 N   0  0  0  0  0  0
    0.1485   -2.5838   -1.2690 O   0  0  0  0  0  0
   -0.5151   -1.7279   -0.4378 C   0  0  0  0  0  0
   -2.0041   -1.5862   -0.5999 C   0  0  2  0  0  0
   -2.5731   -2.5007   -1.7099 C   0  0  0  0  0  0
   -2.4360   -1.8548   -3.0861 C   0  0  0  0  0  0
   -3.1308   -0.4908   -3.1484 C   0  0  0  0  0  0
   -2.3433   -0.0837   -0.8814 C   0  0  2  0  0  0
   -2.6553    0.6561    0.4210 C   0  0  0  0  0  0
   -1.6284    1.3007    1.1312 C   0  0  0  0  0  0
   -1.8866    1.9418    2.3455 C   0  0  0  0  0  0
   -3.1798    1.9642    2.8607 C   0  0  0  0  0  0
   -4.2140    1.3380    2.1668 C   0  0  0  0  0  0
   -3.9521    0.6809    0.9614 C   0  0  0  0  0  0
    0.2948   -1.0622    0.3525 N   0  0  0  0  0  0
    2.7329   -0.0750    1.6058 C   0  0  0  0  0  0
    3.8688    0.6225    2.0238 C   0  0  0  0  0  0
    5.8148    2.5551   -0.0381 H   0  0  0  0  0  0
    6.0173   -0.3134   -0.4501 H   0  0  0  0  0  0
    4.0148   -1.5404   -1.1975 H   0  0  0  0  0  0
   -2.4625   -1.9171    0.3432 H   0  0  0  0  0  0
   -3.6394   -2.6734   -1.5168 H   0  0  0  0  0  0
   -2.1086   -3.4932   -1.7032 H   0  0  0  0  0  0
   -2.8585   -2.5179   -3.8505 H   0  0  0  0  0  0
   -1.3722   -1.7338   -3.3260 H   0  0  0  0  0  0
   -4.0614   -0.5840   -3.7193 H   0  0  0  0  0  0
   -2.4976    0.2105   -3.7050 H   0  0  0  0  0  0
   -1.4797    0.4191   -1.3391 H   0  0  0  0  0  0
   -0.6078    1.2933    0.7520 H   0  0  0  0  0  0
   -1.0739    2.4146    2.8901 H   0  0  0  0  0  0
   -3.3803    2.4691    3.8019 H   0  0  0  0  0  0
   -5.2252    1.3541    2.5661 H   0  0  0  0  0  0
   -4.7734    0.1880    0.4429 H   0  0  0  0  0  0
    1.8198   -0.0051    2.1960 H   0  0  0  0  0  0
    3.8375    1.2244    2.9281 H   0  0  0  0  0  0
   -3.4746    0.0687   -1.8325 N   0  3  0  0  0  0
   -3.6936    1.0663   -1.9379 H   0  0  0  0  0  0
   -4.2952   -0.4244   -1.4613 H   0  0  0  0  0  0
  1  2  1  0  0  0
  2  3  1  0  0  0
  2  4  1  0  0  0
  2 27  1  0  0  0
  4  5  1  0  0  0
  5  6  2  0  0  0
  5 26  1  0  0  0
  6  7  1  0  0  0
  6 28  1  0  0  0
  7  8  2  0  0  0
  7 29  1  0  0  0
  8  9  1  0  0  0
  8 25  1  0  0  0
  9 10  2  0  0  0
  9 24  1  0  0  0
 10 11  1  0  0  0
 11 12  1  0  0  0
 12 13  1  0  0  0
 12 24  2  0  0  0
 13 14  1  0  0  0
 13 17  1  0  0  0
 13 30  1  0  0  0
 14 15  1  0  0  0
 14 31  1  0  0  0
 14 32  1  0  0  0
 15 16  1  0  0  0
 15 33  1  0  0  0
 15 34  1  0  0  0
 16 35  1  0  0  0
 16 36  1  0  0  0
 16 45  1  0  0  0
 17 18  1  0  0  0
 17 37  1  0  0  0
 17 45  1  0  0  0
 18 19  2  0  0  0
 18 23  1  0  0  0
 19 20  1  0  0  0
 19 38  1  0  0  0
 20 21  2  0  0  0
 20 39  1  0  0  0
 21 22  1  0  0  0
 21 40  1  0  0  0
 22 23  2  0  0  0
 22 41  1  0  0  0
 23 42  1  0  0  0
 25 26  2  0  0  0
 25 43  1  0  0  0
 26 44  1  0  0  0
 45 46  1  0  0  0
 45 47  1  0  0  0
M  CHG  1  45   1
M  END
> <energy>
73.9599

> <i_ionizer_Ion_state_n>
1

> <i_ionizer_Tot_Q>
1

> <s_ionizer_Ion_centers>
45

> <s_ionizer_Ion_types>
N5

> <s_ionizer_Ion_ctrs_in>
17

> <r_ionizer_Ionization_penalty>
0.000148807

> <r_ionizer_Ionization_penalty_charging>
0.000148807

> <r_ionizer_Ionization_penalty_neutral>
0

$$$$
ZINC001211849229
                    3D
 Schrodinger Suite 2019-4.
 43 46  0  0  1  0            999 V2000
    7.2834   -2.4317   -0.7165 F   0  0  0  0  0  0
    6.0748   -1.8564   -0.7750 C   0  0  0  0  0  0
    4.9984   -2.5775   -1.2787 C   0  0  0  0  0  0
    3.7386   -1.9784   -1.3400 C   0  0  0  0  0  0
    3.5619   -0.6555   -0.8980 C   0  0  0  0  0  0
    2.2415   -0.0660   -0.9596 C   0  0  0  0  0  0
    1.6169    0.2260   -2.1102 N   0  0  0  0  0  0
    0.4150    0.7946   -1.6914 O   0  0  0  0  0  0
    0.4214    0.7525   -0.3269 C   0  0  0  0  0  0
   -0.7561    1.3148    0.3973 C   0  0  1  0  0  0
   -0.6795    2.8484    0.4187 C   0  0  0  0  0  0
   -1.8455    3.4496    1.2089 C   0  0  0  0  0  0
   -3.0249    2.4879    1.3502 C   0  0  0  0  0  0
   -2.1136    0.8377   -0.2125 C   0  0  1  0  0  0
   -2.5192   -0.6083    0.1025 C   0  0  0  0  0  0
   -3.7243   -1.1009   -0.4374 C   0  0  0  0  0  0
   -4.1517   -2.4096   -0.2009 C   0  0  0  0  0  0
   -3.3728   -3.2639    0.5716 C   0  0  0  0  0  0
   -2.1737   -2.8055    1.1085 C   0  0  0  0  0  0
   -1.7501   -1.4920    0.8769 C   0  0  0  0  0  0
    1.5144    0.2211    0.1709 N   0  0  0  0  0  0
    4.6651    0.0579   -0.4023 C   0  0  0  0  0  0
    4.5481    1.7056    0.1143 Cl  0  0  0  0  0  0
    5.9230   -0.5463   -0.3384 C   0  0  0  0  0  0
    5.1458   -3.5989   -1.6180 H   0  0  0  0  0  0
    2.8948   -2.5469   -1.7278 H   0  0  0  0  0  0
   -0.6874    0.9909    1.4454 H   0  0  0  0  0  0
   -0.7005    3.2360   -0.6080 H   0  0  0  0  0  0
    0.2711    3.1907    0.8502 H   0  0  0  0  0  0
   -1.5025    3.7352    2.2112 H   0  0  0  0  0  0
   -2.1681    4.3750    0.7161 H   0  0  0  0  0  0
   -2.8625    1.7936    2.1833 H   0  0  0  0  0  0
   -3.9294    3.0533    1.6004 H   0  0  0  0  0  0
   -2.0242    0.8681   -1.3083 H   0  0  0  0  0  0
   -4.3504   -0.4475   -1.0432 H   0  0  0  0  0  0
   -5.0936   -2.7556   -0.6178 H   0  0  0  0  0  0
   -3.6987   -4.2835    0.7549 H   0  0  0  0  0  0
   -1.5615   -3.4710    1.7129 H   0  0  0  0  0  0
   -0.8050   -1.1938    1.3212 H   0  0  0  0  0  0
    6.7865   -0.0094    0.0407 H   0  0  0  0  0  0
   -3.2608    1.7519    0.1000 N   0  3  0  0  0  0
   -4.1177    1.1944    0.1957 H   0  0  0  0  0  0
   -3.3736    2.4235   -0.6684 H   0  0  0  0  0  0
  1  2  1  0  0  0
  2  3  2  0  0  0
  2 24  1  0  0  0
  3  4  1  0  0  0
  3 25  1  0  0  0
  4  5  2  0  0  0
  4 26  1  0  0  0
  5  6  1  0  0  0
  5 22  1  0  0  0
  6  7  2  0  0  0
  6 21  1  0  0  0
  7  8  1  0  0  0
  8  9  1  0  0  0
  9 10  1  0  0  0
  9 21  2  0  0  0
 10 11  1  0  0  0
 10 14  1  0  0  0
 10 27  1  0  0  0
 11 12  1  0  0  0
 11 28  1  0  0  0
 11 29  1  0  0  0
 12 13  1  0  0  0
 12 30  1  0  0  0
 12 31  1  0  0  0
 13 32  1  0  0  0
 13 33  1  0  0  0
 13 41  1  0  0  0
 14 15  1  0  0  0
 14 34  1  0  0  0
 14 41  1  0  0  0
 15 16  2  0  0  0
 15 20  1  0  0  0
 16 17  1  0  0  0
 16 35  1  0  0  0
 17 18  2  0  0  0
 17 36  1  0  0  0
 18 19  1  0  0  0
 18 37  1  0  0  0
 19 20  2  0  0  0
 19 38  1  0  0  0
 20 39  1  0  0  0
 22 23  1  0  0  0
 22 24  2  0  0  0
 24 40  1  0  0  0
 41 42  1  0  0  0
 41 43  1  0  0  0
M  CHG  1  41   1
M  END
> <energy>
61.9768

> <i_ionizer_Ion_state_n>
1

> <i_ionizer_Tot_Q>
1

> <s_ionizer_Ion_centers>
41

> <s_ionizer_Ion_types>
N5

> <s_ionizer_Ion_ctrs_in>
14

> <r_ionizer_Ionization_penalty>
0.000148807

> <r_ionizer_Ionization_penalty_charging>
0.000148807

> <r_ionizer_Ionization_penalty_neutral>
0

$$$$
ZINC001211849231
                    3D
 Schrodinger Suite 2019-4.
 43 46  0  0  1  0            999 V2000
    6.5420    0.9849    2.7938 F   0  0  0  0  0  0
    5.4393    0.8463    2.0476 C   0  0  0  0  0  0
    5.3150    1.5816    0.8749 C   0  0  0  0  0  0
    4.1648    1.4400    0.0989 C   0  0  0  0  0  0
    3.1375    0.5649    0.4979 C   0  0  0  0  0  0
    1.9557    0.4611   -0.3354 C   0  0  0  0  0  0
    1.9928    0.0366   -1.6078 N   0  0  0  0  0  0
    0.6695    0.1535   -2.0272 O   0  0  0  0  0  0
   -0.0306    0.6734   -0.9735 C   0  0  0  0  0  0
   -1.4808    0.9448   -1.2233 C   0  0  2  0  0  0
   -1.8413    2.4010   -0.8830 C   0  0  0  0  0  0
   -2.0369    2.6181    0.6174 C   0  0  0  0  0  0
   -3.0240    1.6130    1.2036 C   0  0  0  0  0  0
   -2.4397   -0.0366   -0.4997 C   0  0  1  0  0  0
   -2.0780   -1.4953   -0.7520 C   0  0  0  0  0  0
   -2.5267   -2.1460   -1.9118 C   0  0  0  0  0  0
   -2.1760   -3.4754   -2.1603 C   0  0  0  0  0  0
   -1.3718   -4.1696   -1.2579 C   0  0  0  0  0  0
   -0.9110   -3.5339   -0.1085 C   0  0  0  0  0  0
   -1.2569   -2.2060    0.1402 C   0  0  0  0  0  0
    0.7227    0.9005    0.0797 N   0  0  0  0  0  0
    3.2855   -0.1696    1.6851 C   0  0  0  0  0  0
    2.0977   -1.2975    2.2366 Cl  0  0  0  0  0  0
    4.4397   -0.0265    2.4597 C   0  0  0  0  0  0
    6.1088    2.2579    0.5716 H   0  0  0  0  0  0
    4.0636    2.0180   -0.8190 H   0  0  0  0  0  0
   -1.6413    0.8269   -2.3061 H   0  0  0  0  0  0
   -2.7810    2.6571   -1.3906 H   0  0  0  0  0  0
   -1.0805    3.0931   -1.2629 H   0  0  0  0  0  0
   -2.3973    3.6371    0.7948 H   0  0  0  0  0  0
   -1.0757    2.5335    1.1396 H   0  0  0  0  0  0
   -4.0301    1.7843    0.8036 H   0  0  0  0  0  0
   -3.0885    1.7592    2.2883 H   0  0  0  0  0  0
   -3.4379    0.1091   -0.9396 H   0  0  0  0  0  0
   -3.1496   -1.6223   -2.6322 H   0  0  0  0  0  0
   -2.5255   -3.9687   -3.0635 H   0  0  0  0  0  0
   -1.1000   -5.2041   -1.4528 H   0  0  0  0  0  0
   -0.2719   -4.0644    0.5925 H   0  0  0  0  0  0
   -0.8704   -1.7186    1.0340 H   0  0  0  0  0  0
    4.5748   -0.5905    3.3784 H   0  0  0  0  0  0
   -2.6002    0.2264    0.9561 N   0  3  0  0  0  0
   -1.7028    0.0616    1.4270 H   0  0  0  0  0  0
   -3.3084   -0.4128    1.3357 H   0  0  0  0  0  0
  1  2  1  0  0  0
  2  3  2  0  0  0
  2 24  1  0  0  0
  3  4  1  0  0  0
  3 25  1  0  0  0
  4  5  2  0  0  0
  4 26  1  0  0  0
  5  6  1  0  0  0
  5 22  1  0  0  0
  6  7  2  0  0  0
  6 21  1  0  0  0
  7  8  1  0  0  0
  8  9  1  0  0  0
  9 10  1  0  0  0
  9 21  2  0  0  0
 10 11  1  0  0  0
 10 14  1  0  0  0
 10 27  1  0  0  0
 11 12  1  0  0  0
 11 28  1  0  0  0
 11 29  1  0  0  0
 12 13  1  0  0  0
 12 30  1  0  0  0
 12 31  1  0  0  0
 13 32  1  0  0  0
 13 33  1  0  0  0
 13 41  1  0  0  0
 14 15  1  0  0  0
 14 34  1  0  0  0
 14 41  1  0  0  0
 15 16  2  0  0  0
 15 20  1  0  0  0
 16 17  1  0  0  0
 16 35  1  0  0  0
 17 18  2  0  0  0
 17 36  1  0  0  0
 18 19  1  0  0  0
 18 37  1  0  0  0
 19 20  2  0  0  0
 19 38  1  0  0  0
 20 39  1  0  0  0
 22 23  1  0  0  0
 22 24  2  0  0  0
 24 40  1  0  0  0
 41 42  1  0  0  0
 41 43  1  0  0  0
M  CHG  1  41   1
M  END
> <energy>
55.4361

> <i_ionizer_Ion_state_n>
1

> <i_ionizer_Tot_Q>
1

> <s_ionizer_Ion_centers>
41

> <s_ionizer_Ion_types>
N5

> <s_ionizer_Ion_ctrs_in>
14

> <r_ionizer_Ionization_penalty>
0.000148807

> <r_ionizer_Ionization_penalty_charging>
0.000148807

> <r_ionizer_Ionization_penalty_neutral>
0

$$$$
ZINC001211849232
                    3D
 Schrodinger Suite 2019-4.
 43 46  0  0  1  0            999 V2000
    6.5248    2.0866    2.4738 F   0  0  0  0  0  0
    5.5284    1.5338    1.7698 C   0  0  0  0  0  0
    4.6921    0.6104    2.3787 C   0  0  0  0  0  0
    3.6545    0.0361    1.6411 C   0  0  0  0  0  0
    3.4485    0.3726    0.2866 C   0  0  0  0  0  0
    2.3535   -0.2871   -0.4187 C   0  0  0  0  0  0
    2.3646   -0.6203   -1.7183 N   0  0  0  0  0  0
    1.1267   -1.2197   -1.9238 O   0  0  0  0  0  0
    0.4919   -1.2242   -0.7177 C   0  0  0  0  0  0
   -0.8744   -1.8187   -0.6874 C   0  0  1  0  0  0
   -1.2545   -2.3631    0.6982 C   0  0  0  0  0  0
   -2.6873   -2.8906    0.7121 C   0  0  0  0  0  0
   -3.6706   -1.8825    0.1223 C   0  0  0  0  0  0
   -1.9517   -0.8763   -1.3004 C   0  0  2  0  0  0
   -2.0269    0.5922   -0.8821 C   0  0  0  0  0  0
   -2.6346    1.5011   -1.7724 C   0  0  0  0  0  0
   -2.7255    2.8623   -1.4754 C   0  0  0  0  0  0
   -2.2147    3.3456   -0.2764 C   0  0  0  0  0  0
   -1.6298    2.4645    0.6276 C   0  0  0  0  0  0
   -1.5423    1.1001    0.3301 C   0  0  0  0  0  0
    1.2149   -0.6999    0.2462 N   0  0  0  0  0  0
    4.3033    1.3249   -0.3006 C   0  0  0  0  0  0
    4.1273    1.9002   -1.9241 Cl  0  0  0  0  0  0
    5.3431    1.8993    0.4437 C   0  0  0  0  0  0
    4.8507    0.3421    3.4187 H   0  0  0  0  0  0
    3.0032   -0.6882    2.1292 H   0  0  0  0  0  0
   -0.8353   -2.7026   -1.3437 H   0  0  0  0  0  0
   -0.5695   -3.1732    0.9819 H   0  0  0  0  0  0
   -1.1473   -1.6001    1.4754 H   0  0  0  0  0  0
   -2.9788   -3.1343    1.7406 H   0  0  0  0  0  0
   -2.7342   -3.8258    0.1407 H   0  0  0  0  0  0
   -4.6709   -2.3311    0.0955 H   0  0  0  0  0  0
   -3.7505   -1.0003    0.7667 H   0  0  0  0  0  0
   -1.7001   -0.8308   -2.3728 H   0  0  0  0  0  0
   -3.0504    1.1410   -2.7120 H   0  0  0  0  0  0
   -3.1942    3.5420   -2.1817 H   0  0  0  0  0  0
   -2.2746    4.4052   -0.0444 H   0  0  0  0  0  0
   -1.2378    2.8361    1.5705 H   0  0  0  0  0  0
   -1.0753    0.4633    1.0714 H   0  0  0  0  0  0
    6.0081    2.6361    0.0028 H   0  0  0  0  0  0
   -3.3088   -1.5011   -1.2560 N   0  3  0  0  0  0
   -3.3119   -2.3399   -1.8481 H   0  0  0  0  0  0
   -3.9996   -0.8293   -1.6106 H   0  0  0  0  0  0
  1  2  1  0  0  0
  2  3  2  0  0  0
  2 24  1  0  0  0
  3  4  1  0  0  0
  3 25  1  0  0  0
  4  5  2  0  0  0
  4 26  1  0  0  0
  5  6  1  0  0  0
  5 22  1  0  0  0
  6  7  2  0  0  0
  6 21  1  0  0  0
  7  8  1  0  0  0
  8  9  1  0  0  0
  9 10  1  0  0  0
  9 21  2  0  0  0
 10 11  1  0  0  0
 10 14  1  0  0  0
 10 27  1  0  0  0
 11 12  1  0  0  0
 11 28  1  0  0  0
 11 29  1  0  0  0
 12 13  1  0  0  0
 12 30  1  0  0  0
 12 31  1  0  0  0
 13 32  1  0  0  0
 13 33  1  0  0  0
 13 41  1  0  0  0
 14 15  1  0  0  0
 14 34  1  0  0  0
 14 41  1  0  0  0
 15 16  2  0  0  0
 15 20  1  0  0  0
 16 17  1  0  0  0
 16 35  1  0  0  0
 17 18  2  0  0  0
 17 36  1  0  0  0
 18 19  1  0  0  0
 18 37  1  0  0  0
 19 20  2  0  0  0
 19 38  1  0  0  0
 20 39  1  0  0  0
 22 23  1  0  0  0
 22 24  2  0  0  0
 24 40  1  0  0  0
 41 42  1  0  0  0
 41 43  1  0  0  0
M  CHG  1  41   1
M  END
> <energy>
57.5091

> <i_ionizer_Ion_state_n>
1

> <i_ionizer_Tot_Q>
1

> <s_ionizer_Ion_centers>
41

> <s_ionizer_Ion_types>
N5

> <s_ionizer_Ion_ctrs_in>
14

> <r_ionizer_Ionization_penalty>
0.000148807

> <r_ionizer_Ionization_penalty_charging>
0.000148807

> <r_ionizer_Ionization_penalty_neutral>
0

$$$$
ZINC001211849233
                    3D
 Schrodinger Suite 2019-4.
 43 46  0  0  1  0            999 V2000
    6.6212   -2.7838   -1.2238 F   0  0  0  0  0  0
    5.5803   -2.0379   -0.8314 C   0  0  0  0  0  0
    5.2271   -0.9189   -1.5728 C   0  0  0  0  0  0
    4.1314   -0.1529   -1.1744 C   0  0  0  0  0  0
    3.3924   -0.5021   -0.0285 C   0  0  0  0  0  0
    2.2248    0.2902    0.3025 C   0  0  0  0  0  0
    2.0156    0.8821    1.4886 N   0  0  0  0  0  0
    0.7487    1.4519    1.3490 O   0  0  0  0  0  0
    0.3434    1.1775    0.0746 C   0  0  0  0  0  0
   -1.0280    1.5979   -0.3314 C   0  0  2  0  0  0
   -1.1804    3.1249   -0.2625 C   0  0  0  0  0  0
   -2.6425    3.5737   -0.3350 C   0  0  0  0  0  0
   -3.5824    2.4516   -0.7621 C   0  0  0  0  0  0
   -2.1315    0.9021    0.5087 C   0  0  2  0  0  0
   -2.0512   -0.6224    0.5481 C   0  0  0  0  0  0
   -2.3104   -1.2925    1.7569 C   0  0  0  0  0  0
   -2.2223   -2.6826    1.8393 C   0  0  0  0  0  0
   -1.8764   -3.4243    0.7135 C   0  0  0  0  0  0
   -1.6559   -2.7807   -0.5021 C   0  0  0  0  0  0
   -1.7545   -1.3899   -0.5895 C   0  0  0  0  0  0
    1.2332    0.5138   -0.6241 N   0  0  0  0  0  0
    3.7689   -1.6386    0.7082 C   0  0  0  0  0  0
    2.8848   -2.2022    2.0864 Cl  0  0  0  0  0  0
    4.8664   -2.4042    0.3022 C   0  0  0  0  0  0
    5.7930   -0.6603   -2.4627 H   0  0  0  0  0  0
    3.8419    0.7127   -1.7693 H   0  0  0  0  0  0
   -1.1474    1.3079   -1.3854 H   0  0  0  0  0  0
   -0.6082    3.5786   -1.0825 H   0  0  0  0  0  0
   -0.7385    3.5239    0.6598 H   0  0  0  0  0  0
   -2.9501    3.9514    0.6477 H   0  0  0  0  0  0
   -2.7314    4.4166   -1.0300 H   0  0  0  0  0  0
   -3.3566    2.1403   -1.7897 H   0  0  0  0  0  0
   -4.6133    2.8217   -0.7664 H   0  0  0  0  0  0
   -1.9921    1.2468    1.5434 H   0  0  0  0  0  0
   -2.5769   -0.7283    2.6488 H   0  0  0  0  0  0
   -2.4138   -3.1815    2.7860 H   0  0  0  0  0  0
   -1.7840   -4.5042    0.7835 H   0  0  0  0  0  0
   -1.4032   -3.3636   -1.3848 H   0  0  0  0  0  0
   -1.5798   -0.9213   -1.5555 H   0  0  0  0  0  0
    5.1628   -3.2954    0.8475 H   0  0  0  0  0  0
   -3.5351    1.2896    0.1511 N   0  3  0  0  0  0
   -4.0419    1.5260    1.0122 H   0  0  0  0  0  0
   -3.9915    0.4917   -0.3065 H   0  0  0  0  0  0
  1  2  1  0  0  0
  2  3  2  0  0  0
  2 24  1  0  0  0
  3  4  1  0  0  0
  3 25  1  0  0  0
  4  5  2  0  0  0
  4 26  1  0  0  0
  5  6  1  0  0  0
  5 22  1  0  0  0
  6  7  2  0  0  0
  6 21  1  0  0  0
  7  8  1  0  0  0
  8  9  1  0  0  0
  9 10  1  0  0  0
  9 21  2  0  0  0
 10 11  1  0  0  0
 10 14  1  0  0  0
 10 27  1  0  0  0
 11 12  1  0  0  0
 11 28  1  0  0  0
 11 29  1  0  0  0
 12 13  1  0  0  0
 12 30  1  0  0  0
 12 31  1  0  0  0
 13 32  1  0  0  0
 13 33  1  0  0  0
 13 41  1  0  0  0
 14 15  1  0  0  0
 14 34  1  0  0  0
 14 41  1  0  0  0
 15 16  2  0  0  0
 15 20  1  0  0  0
 16 17  1  0  0  0
 16 35  1  0  0  0
 17 18  2  0  0  0
 17 36  1  0  0  0
 18 19  1  0  0  0
 18 37  1  0  0  0
 19 20  2  0  0  0
 19 38  1  0  0  0
 20 39  1  0  0  0
 22 23  1  0  0  0
 22 24  2  0  0  0
 24 40  1  0  0  0
 41 42  1  0  0  0
 41 43  1  0  0  0
M  CHG  1  41   1
M  END
> <energy>
58.5023

> <i_ionizer_Ion_state_n>
1

> <i_ionizer_Tot_Q>
1

> <s_ionizer_Ion_centers>
41

> <s_ionizer_Ion_types>
N5

> <s_ionizer_Ion_ctrs_in>
14

> <r_ionizer_Ionization_penalty>
0.000148807

> <r_ionizer_Ionization_penalty_charging>
0.000148807

> <r_ionizer_Ionization_penalty_neutral>
0

$$$$
ZINC001211849234
                    3D
 Schrodinger Suite 2019-4.
 43 46  0  0  1  0            999 V2000
    6.4934    0.1414    3.3274 F   0  0  0  0  0  0
    5.4724   -0.0449    2.4776 C   0  0  0  0  0  0
    4.2168    0.4452    2.8255 C   0  0  0  0  0  0
    3.1367    0.2513    1.9602 C   0  0  0  0  0  0
    3.3187   -0.4108    0.7348 C   0  0  0  0  0  0
    2.1993   -0.5750   -0.1763 C   0  0  0  0  0  0
    2.3085   -0.4723   -1.5093 N   0  0  0  0  0  0
    1.0000   -0.6229   -1.9575 O   0  0  0  0  0  0
    0.2332   -0.8456   -0.8503 C   0  0  0  0  0  0
   -1.2282   -1.0703   -1.0617 C   0  0  2  0  0  0
   -1.4779   -1.9085   -2.3282 C   0  0  0  0  0  0
   -2.9702   -2.0676   -2.5888 C   0  0  0  0  0  0
   -3.6588   -0.7065   -2.6496 C   0  0  0  0  0  0
   -2.0048    0.2758   -1.1413 C   0  0  2  0  0  0
   -1.8814    1.1333    0.1179 C   0  0  0  0  0  0
   -2.1506    0.6191    1.3979 C   0  0  0  0  0  0
   -2.0261    1.4245    2.5322 C   0  0  0  0  0  0
   -1.6469    2.7580    2.4071 C   0  0  0  0  0  0
   -1.3915    3.2892    1.1460 C   0  0  0  0  0  0
   -1.5106    2.4850    0.0091 C   0  0  0  0  0  0
    0.9224   -0.8319    0.2668 N   0  0  0  0  0  0
    4.5910   -0.8966    0.3961 C   0  0  0  0  0  0
    5.6614   -0.7240    1.2758 C   0  0  0  0  0  0
    7.2050   -1.3657    0.8627 Cl  0  0  0  0  0  0
    4.0879    0.9693    3.7676 H   0  0  0  0  0  0
    2.1536    0.6310    2.2367 H   0  0  0  0  0  0
   -1.5961   -1.6593   -0.2105 H   0  0  0  0  0  0
   -1.0071   -2.8939   -2.2340 H   0  0  0  0  0  0
   -1.0202   -1.4263   -3.2017 H   0  0  0  0  0  0
   -3.1249   -2.6042   -3.5341 H   0  0  0  0  0  0
   -3.4195   -2.6816   -1.7965 H   0  0  0  0  0  0
   -4.7365   -0.8502   -2.7892 H   0  0  0  0  0  0
   -3.3049   -0.1429   -3.5210 H   0  0  0  0  0  0
   -1.5787    0.8555   -1.9735 H   0  0  0  0  0  0
   -2.4600   -0.4145    1.5295 H   0  0  0  0  0  0
   -2.2310    1.0095    3.5158 H   0  0  0  0  0  0
   -1.5616    3.3872    3.2896 H   0  0  0  0  0  0
   -1.1073    4.3333    1.0421 H   0  0  0  0  0  0
   -1.3136    2.9247   -0.9660 H   0  0  0  0  0  0
    4.7429   -1.4222   -0.5438 H   0  0  0  0  0  0
   -3.4568    0.0873   -1.4267 N   0  3  0  0  0  0
   -3.8968    1.0071   -1.5477 H   0  0  0  0  0  0
   -3.8936   -0.3995   -0.6352 H   0  0  0  0  0  0
  1  2  1  0  0  0
  2  3  2  0  0  0
  2 23  1  0  0  0
  3  4  1  0  0  0
  3 25  1  0  0  0
  4  5  2  0  0  0
  4 26  1  0  0  0
  5  6  1  0  0  0
  5 22  1  0  0  0
  6  7  2  0  0  0
  6 21  1  0  0  0
  7  8  1  0  0  0
  8  9  1  0  0  0
  9 10  1  0  0  0
  9 21  2  0  0  0
 10 11  1  0  0  0
 10 14  1  0  0  0
 10 27  1  0  0  0
 11 12  1  0  0  0
 11 28  1  0  0  0
 11 29  1  0  0  0
 12 13  1  0  0  0
 12 30  1  0  0  0
 12 31  1  0  0  0
 13 32  1  0  0  0
 13 33  1  0  0  0
 13 41  1  0  0  0
 14 15  1  0  0  0
 14 34  1  0  0  0
 14 41  1  0  0  0
 15 16  2  0  0  0
 15 20  1  0  0  0
 16 17  1  0  0  0
 16 35  1  0  0  0
 17 18  2  0  0  0
 17 36  1  0  0  0
 18 19  1  0  0  0
 18 37  1  0  0  0
 19 20  2  0  0  0
 19 38  1  0  0  0
 20 39  1  0  0  0
 22 23  2  0  0  0
 22 40  1  0  0  0
 23 24  1  0  0  0
 41 42  1  0  0  0
 41 43  1  0  0  0
M  CHG  1  41   1
M  END
> <energy>
62.0305

> <i_ionizer_Ion_state_n>
1

> <i_ionizer_Tot_Q>
1

> <s_ionizer_Ion_centers>
41

> <s_ionizer_Ion_types>
N5

> <s_ionizer_Ion_ctrs_in>
14

> <r_ionizer_Ionization_penalty>
0.000148807

> <r_ionizer_Ionization_penalty_charging>
0.000148807

> <r_ionizer_Ionization_penalty_neutral>
0

$$$$
ZINC001211849235
                    3D
 Schrodinger Suite 2019-4.
 43 46  0  0  1  0            999 V2000
    4.5381   -3.5803   -4.6003 F   0  0  0  0  0  0
    3.8285   -2.7580   -3.8131 C   0  0  0  0  0  0
    4.1270   -2.7118   -2.4567 C   0  0  0  0  0  0
    3.3940   -1.8694   -1.6173 C   0  0  0  0  0  0
    2.3503   -1.0798   -2.1305 C   0  0  0  0  0  0
    1.5591   -0.2321   -1.2487 C   0  0  0  0  0  0
    2.0169    0.2705   -0.0908 N   0  0  0  0  0  0
    0.9236    0.9639    0.4218 O   0  0  0  0  0  0
   -0.1001    0.7872   -0.4626 C   0  0  0  0  0  0
   -1.4470    1.3442   -0.1201 C   0  0  2  0  0  0
   -1.5579    2.8210   -0.5414 C   0  0  0  0  0  0
   -0.9161    3.7607    0.4771 C   0  0  0  0  0  0
   -1.4694    3.5101    1.8750 C   0  0  0  0  0  0
   -1.8667    1.1558    1.3675 C   0  0  1  0  0  0
   -1.6972   -0.2831    1.8550 C   0  0  0  0  0  0
   -2.6024   -1.2751    1.4373 C   0  0  0  0  0  0
   -2.4482   -2.6014    1.8501 C   0  0  0  0  0  0
   -1.3895   -2.9582    2.6801 C   0  0  0  0  0  0
   -0.4830   -1.9895    3.1024 C   0  0  0  0  0  0
   -0.6335   -0.6648    2.6904 C   0  0  0  0  0  0
    0.2544    0.1038   -1.5300 N   0  0  0  0  0  0
    2.0656   -1.1345   -3.5034 C   0  0  0  0  0  0
    2.8099   -1.9673   -4.3418 C   0  0  0  0  0  0
    2.4549   -2.0119   -6.0260 Cl  0  0  0  0  0  0
    4.9244   -3.3340   -2.0593 H   0  0  0  0  0  0
    3.6309   -1.8461   -0.5545 H   0  0  0  0  0  0
   -2.1641    0.7840   -0.7420 H   0  0  0  0  0  0
   -1.1127    2.9872   -1.5294 H   0  0  0  0  0  0
   -2.6216    3.0787   -0.6227 H   0  0  0  0  0  0
   -1.1069    4.8023    0.1900 H   0  0  0  0  0  0
    0.1738    3.6226    0.4785 H   0  0  0  0  0  0
   -0.9772    4.1830    2.5829 H   0  0  0  0  0  0
   -2.5402    3.7431    1.9141 H   0  0  0  0  0  0
   -2.9490    1.3578    1.4241 H   0  0  0  0  0  0
   -3.4336   -1.0243    0.7838 H   0  0  0  0  0  0
   -3.1525   -3.3602    1.5168 H   0  0  0  0  0  0
   -1.2626   -3.9901    2.9927 H   0  0  0  0  0  0
    0.3497   -2.2595    3.7462 H   0  0  0  0  0  0
    0.1023    0.0697    3.0148 H   0  0  0  0  0  0
    1.2651   -0.5254   -3.9182 H   0  0  0  0  0  0
   -1.2243    2.1251    2.3006 N   0  3  0  0  0  0
   -0.2121    1.9538    2.3179 H   0  0  0  0  0  0
   -1.6103    1.9904    3.2425 H   0  0  0  0  0  0
  1  2  1  0  0  0
  2  3  2  0  0  0
  2 23  1  0  0  0
  3  4  1  0  0  0
  3 25  1  0  0  0
  4  5  2  0  0  0
  4 26  1  0  0  0
  5  6  1  0  0  0
  5 22  1  0  0  0
  6  7  2  0  0  0
  6 21  1  0  0  0
  7  8  1  0  0  0
  8  9  1  0  0  0
  9 10  1  0  0  0
  9 21  2  0  0  0
 10 11  1  0  0  0
 10 14  1  0  0  0
 10 27  1  0  0  0
 11 12  1  0  0  0
 11 28  1  0  0  0
 11 29  1  0  0  0
 12 13  1  0  0  0
 12 30  1  0  0  0
 12 31  1  0  0  0
 13 32  1  0  0  0
 13 33  1  0  0  0
 13 41  1  0  0  0
 14 15  1  0  0  0
 14 34  1  0  0  0
 14 41  1  0  0  0
 15 16  2  0  0  0
 15 20  1  0  0  0
 16 17  1  0  0  0
 16 35  1  0  0  0
 17 18  2  0  0  0
 17 36  1  0  0  0
 18 19  1  0  0  0
 18 37  1  0  0  0
 19 20  2  0  0  0
 19 38  1  0  0  0
 20 39  1  0  0  0
 22 23  2  0  0  0
 22 40  1  0  0  0
 23 24  1  0  0  0
 41 42  1  0  0  0
 41 43  1  0  0  0
M  CHG  1  41   1
M  END
> <energy>
62.1596

> <i_ionizer_Ion_state_n>
1

> <i_ionizer_Tot_Q>
1

> <s_ionizer_Ion_centers>
41

> <s_ionizer_Ion_types>
N5

> <s_ionizer_Ion_ctrs_in>
14

> <r_ionizer_Ionization_penalty>
0.000148807

> <r_ionizer_Ionization_penalty_charging>
0.000148807

> <r_ionizer_Ionization_penalty_neutral>
0

$$$$
ZINC001211849236
                    3D
 Schrodinger Suite 2019-4.
 43 46  0  0  1  0            999 V2000
    6.3750   -1.6148    3.5100 F   0  0  0  0  0  0
    5.2959   -1.0141    2.9865 C   0  0  0  0  0  0
    5.0174    0.2982    3.3551 C   0  0  0  0  0  0
    3.8926    0.9408    2.8282 C   0  0  0  0  0  0
    3.0377    0.2697    1.9368 C   0  0  0  0  0  0
    1.8431    0.9182    1.4075 C   0  0  0  0  0  0
    1.6330    2.2426    1.4330 N   0  0  0  0  0  0
    0.3663    2.3878    0.8721 O   0  0  0  0  0  0
   -0.0738    1.1329    0.5646 C   0  0  0  0  0  0
   -1.4565    0.9771    0.0045 C   0  0  1  0  0  0
   -2.2626    2.2880   -0.0206 C   0  0  0  0  0  0
   -1.9374    3.1719   -1.2254 C   0  0  0  0  0  0
   -1.8316    2.3994   -2.5414 C   0  0  0  0  0  0
   -1.3927    0.3090   -1.4010 C   0  0  1  0  0  0
   -1.8131   -1.1564   -1.3187 C   0  0  0  0  0  0
   -3.1687   -1.5212   -1.2425 C   0  0  0  0  0  0
   -3.5442   -2.8638   -1.1699 C   0  0  0  0  0  0
   -2.5698   -3.8591   -1.1638 C   0  0  0  0  0  0
   -1.2210   -3.5137   -1.2187 C   0  0  0  0  0  0
   -0.8430   -2.1700   -1.2923 C   0  0  0  0  0  0
    0.8075    0.2005    0.8495 N   0  0  0  0  0  0
    3.3360   -1.0539    1.5762 C   0  0  0  0  0  0
    4.4650   -1.6906    2.0968 C   0  0  0  0  0  0
    4.8111   -3.3126    1.6348 Cl  0  0  0  0  0  0
    5.6736    0.8087    4.0535 H   0  0  0  0  0  0
    3.6817    1.9643    3.1342 H   0  0  0  0  0  0
   -1.9799    0.3196    0.7137 H   0  0  0  0  0  0
   -2.1380    2.8583    0.9077 H   0  0  0  0  0  0
   -3.3298    2.0301   -0.0700 H   0  0  0  0  0  0
   -0.9956    3.7054   -1.0498 H   0  0  0  0  0  0
   -2.7170    3.9385   -1.3115 H   0  0  0  0  0  0
   -2.4739    2.8775   -3.2891 H   0  0  0  0  0  0
   -0.8087    2.4637   -2.9324 H   0  0  0  0  0  0
   -0.3623    0.3301   -1.7864 H   0  0  0  0  0  0
   -3.9407   -0.7538   -1.2516 H   0  0  0  0  0  0
   -4.5967   -3.1292   -1.1219 H   0  0  0  0  0  0
   -2.8625   -4.9044   -1.1120 H   0  0  0  0  0  0
   -0.4613   -4.2908   -1.2045 H   0  0  0  0  0  0
    0.2159   -1.9221   -1.3288 H   0  0  0  0  0  0
    2.6851   -1.5912    0.8900 H   0  0  0  0  0  0
   -2.2381    0.9993   -2.4090 N   0  3  0  0  0  0
   -3.2202    0.9586   -2.1122 H   0  0  0  0  0  0
   -2.1350    0.5297   -3.3162 H   0  0  0  0  0  0
  1  2  1  0  0  0
  2  3  2  0  0  0
  2 23  1  0  0  0
  3  4  1  0  0  0
  3 25  1  0  0  0
  4  5  2  0  0  0
  4 26  1  0  0  0
  5  6  1  0  0  0
  5 22  1  0  0  0
  6  7  2  0  0  0
  6 21  1  0  0  0
  7  8  1  0  0  0
  8  9  1  0  0  0
  9 10  1  0  0  0
  9 21  2  0  0  0
 10 11  1  0  0  0
 10 14  1  0  0  0
 10 27  1  0  0  0
 11 12  1  0  0  0
 11 28  1  0  0  0
 11 29  1  0  0  0
 12 13  1  0  0  0
 12 30  1  0  0  0
 12 31  1  0  0  0
 13 32  1  0  0  0
 13 33  1  0  0  0
 13 41  1  0  0  0
 14 15  1  0  0  0
 14 34  1  0  0  0
 14 41  1  0  0  0
 15 16  2  0  0  0
 15 20  1  0  0  0
 16 17  1  0  0  0
 16 35  1  0  0  0
 17 18  2  0  0  0
 17 36  1  0  0  0
 18 19  1  0  0  0
 18 37  1  0  0  0
 19 20  2  0  0  0
 19 38  1  0  0  0
 20 39  1  0  0  0
 22 23  2  0  0  0
 22 40  1  0  0  0
 23 24  1  0  0  0
 41 42  1  0  0  0
 41 43  1  0  0  0
M  CHG  1  41   1
M  END
> <energy>
65.6921

> <i_ionizer_Ion_state_n>
1

> <i_ionizer_Tot_Q>
1

> <s_ionizer_Ion_centers>
41

> <s_ionizer_Ion_types>
N5

> <s_ionizer_Ion_ctrs_in>
14

> <r_ionizer_Ionization_penalty>
0.000148807

> <r_ionizer_Ionization_penalty_charging>
0.000148807

> <r_ionizer_Ionization_penalty_neutral>
0

$$$$
ZINC001211849237
                    3D
 Schrodinger Suite 2019-4.
 43 46  0  0  1  0            999 V2000
    6.3967    3.0456   -0.9645 F   0  0  0  0  0  0
    5.3670    2.2165   -0.7353 C   0  0  0  0  0  0
    4.2246    2.3422   -1.5174 C   0  0  0  0  0  0
    3.1394    1.4919   -1.2926 C   0  0  0  0  0  0
    3.1909    0.5131   -0.2851 C   0  0  0  0  0  0
    2.0358   -0.3458   -0.0492 C   0  0  0  0  0  0
    1.8813   -1.1157    1.0393 N   0  0  0  0  0  0
    0.6051   -1.6556    0.8819 O   0  0  0  0  0  0
    0.1283   -1.1844   -0.3063 C   0  0  0  0  0  0
   -1.2578   -1.5670   -0.7126 C   0  0  1  0  0  0
   -1.4634   -3.0971   -0.6456 C   0  0  0  0  0  0
   -2.8598   -3.4556   -0.1516 C   0  0  0  0  0  0
   -3.1465   -2.8157    1.2083 C   0  0  0  0  0  0
   -2.3620   -0.7881    0.0622 C   0  0  2  0  0  0
   -2.0492    0.6978    0.2202 C   0  0  0  0  0  0
   -1.4801    1.2159    1.3950 C   0  0  0  0  0  0
   -1.1480    2.5683    1.4920 C   0  0  0  0  0  0
   -1.3734    3.4223    0.4159 C   0  0  0  0  0  0
   -1.9319    2.9260   -0.7594 C   0  0  0  0  0  0
   -2.2688    1.5740   -0.8574 C   0  0  0  0  0  0
    0.9814   -0.4050   -0.9329 N   0  0  0  0  0  0
    4.3534    0.3980    0.4933 C   0  0  0  0  0  0
    5.4377    1.2497    0.2652 C   0  0  0  0  0  0
    6.8540    1.0971    1.2329 Cl  0  0  0  0  0  0
    4.1832    3.0990   -2.2944 H   0  0  0  0  0  0
    2.2422    1.6050   -1.9003 H   0  0  0  0  0  0
   -1.3580   -1.2792   -1.7698 H   0  0  0  0  0  0
   -1.2994   -3.5343   -1.6389 H   0  0  0  0  0  0
   -0.7311   -3.5756    0.0163 H   0  0  0  0  0  0
   -2.9609   -4.5437   -0.0768 H   0  0  0  0  0  0
   -3.6030   -3.1204   -0.8855 H   0  0  0  0  0  0
   -2.6596   -3.4011    1.9974 H   0  0  0  0  0  0
   -4.2237   -2.8715    1.4003 H   0  0  0  0  0  0
   -3.2833   -0.8247   -0.5386 H   0  0  0  0  0  0
   -1.2690    0.5612    2.2389 H   0  0  0  0  0  0
   -0.7039    2.9480    2.4081 H   0  0  0  0  0  0
   -1.1101    4.4738    0.4939 H   0  0  0  0  0  0
   -2.0982    3.5911   -1.6020 H   0  0  0  0  0  0
   -2.6913    1.2074   -1.7900 H   0  0  0  0  0  0
    4.4167   -0.3513    1.2794 H   0  0  0  0  0  0
   -2.6942   -1.4167    1.3694 N   0  3  0  0  0  0
   -3.4427   -0.8753    1.8177 H   0  0  0  0  0  0
   -1.8586   -1.4044    1.9658 H   0  0  0  0  0  0
  1  2  1  0  0  0
  2  3  2  0  0  0
  2 23  1  0  0  0
  3  4  1  0  0  0
  3 25  1  0  0  0
  4  5  2  0  0  0
  4 26  1  0  0  0
  5  6  1  0  0  0
  5 22  1  0  0  0
  6  7  2  0  0  0
  6 21  1  0  0  0
  7  8  1  0  0  0
  8  9  1  0  0  0
  9 10  1  0  0  0
  9 21  2  0  0  0
 10 11  1  0  0  0
 10 14  1  0  0  0
 10 27  1  0  0  0
 11 12  1  0  0  0
 11 28  1  0  0  0
 11 29  1  0  0  0
 12 13  1  0  0  0
 12 30  1  0  0  0
 12 31  1  0  0  0
 13 32  1  0  0  0
 13 33  1  0  0  0
 13 41  1  0  0  0
 14 15  1  0  0  0
 14 34  1  0  0  0
 14 41  1  0  0  0
 15 16  2  0  0  0
 15 20  1  0  0  0
 16 17  1  0  0  0
 16 35  1  0  0  0
 17 18  2  0  0  0
 17 36  1  0  0  0
 18 19  1  0  0  0
 18 37  1  0  0  0
 19 20  2  0  0  0
 19 38  1  0  0  0
 20 39  1  0  0  0
 22 23  2  0  0  0
 22 40  1  0  0  0
 23 24  1  0  0  0
 41 42  1  0  0  0
 41 43  1  0  0  0
M  CHG  1  41   1
M  END
> <energy>
68.128

> <i_ionizer_Ion_state_n>
1

> <i_ionizer_Tot_Q>
1

> <s_ionizer_Ion_centers>
41

> <s_ionizer_Ion_types>
N5

> <s_ionizer_Ion_ctrs_in>
14

> <r_ionizer_Ionization_penalty>
0.000148807

> <r_ionizer_Ionization_penalty_charging>
0.000148807

> <r_ionizer_Ionization_penalty_neutral>
0

$$$$
ZINC001211849314
                    3D
 Schrodinger Suite 2019-4.
 46 49  0  0  1  0            999 V2000
   -0.7282    3.7291    4.5394 F   0  0  0  0  0  0
   -0.9356    2.7308    3.6294 C   0  0  0  0  0  0
   -1.4725    1.7017    4.3400 F   0  0  0  0  0  0
    0.3105    2.3305    3.2556 F   0  0  0  0  0  0
   -1.8096    3.1633    2.4776 C   0  0  0  0  0  0
   -2.5536    4.3544    2.5755 C   0  0  0  0  0  0
   -3.3757    4.7733    1.5281 C   0  0  0  0  0  0
   -3.4711    4.0092    0.3683 C   0  0  0  0  0  0
   -2.7397    2.8271    0.2529 C   0  0  0  0  0  0
   -1.9150    2.3941    1.3032 C   0  0  0  0  0  0
   -1.1697    1.1620    1.1390 C   0  0  0  0  0  0
   -1.4809    0.0199    1.7677 N   0  0  0  0  0  0
   -0.4671   -0.8513    1.3723 O   0  0  0  0  0  0
    0.3495   -0.1436    0.5355 C   0  0  0  0  0  0
    1.5637   -0.8376    0.0071 C   0  0  1  0  0  0
    2.5403   -1.1632    1.1587 C   0  0  0  0  0  0
    2.4297   -2.6240    1.5847 C   0  0  0  0  0  0
    2.7036   -3.5686    0.4113 C   0  0  0  0  0  0
    1.1650   -2.1084   -0.7977 C   0  0  1  0  0  0
    0.6654   -1.7573   -2.1948 C   0  0  0  0  0  0
   -0.6897   -1.9241   -2.5191 C   0  0  0  0  0  0
   -1.1613   -1.6010   -3.7935 C   0  0  0  0  0  0
   -0.2870   -1.1060   -4.7582 C   0  0  0  0  0  0
    1.0614   -0.9378   -4.4533 C   0  0  0  0  0  0
    1.5355   -1.2620   -3.1807 C   0  0  0  0  0  0
   -0.0470    1.0952    0.3537 N   0  0  0  0  0  0
   -2.4919    4.9669    3.4751 H   0  0  0  0  0  0
   -3.9430    5.6967    1.6191 H   0  0  0  0  0  0
   -4.1126    4.3349   -0.4478 H   0  0  0  0  0  0
   -2.8156    2.2399   -0.6608 H   0  0  0  0  0  0
    2.0794   -0.1185   -0.6451 H   0  0  0  0  0  0
    3.5673   -0.9830    0.8138 H   0  0  0  0  0  0
    2.3865   -0.5041    2.0223 H   0  0  0  0  0  0
    3.1310   -2.8331    2.3996 H   0  0  0  0  0  0
    1.4238   -2.8123    1.9791 H   0  0  0  0  0  0
    3.7761   -3.7896    0.3631 H   0  0  0  0  0  0
    2.1952   -4.5213    0.6005 H   0  0  0  0  0  0
    0.3517   -2.6429   -0.2856 H   0  0  0  0  0  0
   -1.3923   -2.3083   -1.7827 H   0  0  0  0  0  0
   -2.2129   -1.7352   -4.0330 H   0  0  0  0  0  0
   -0.6554   -0.8507   -5.7481 H   0  0  0  0  0  0
    1.7468   -0.5554   -5.2057 H   0  0  0  0  0  0
    2.5940   -1.1323   -2.9601 H   0  0  0  0  0  0
    2.3082   -3.0482   -0.9113 N   0  3  0  0  0  0
    3.1062   -2.5560   -1.3299 H   0  0  0  0  0  0
    2.0370   -3.8345   -1.5133 H   0  0  0  0  0  0
  1  2  1  0  0  0
  2  3  1  0  0  0
  2  4  1  0  0  0
  2  5  1  0  0  0
  5  6  2  0  0  0
  5 10  1  0  0  0
  6  7  1  0  0  0
  6 27  1  0  0  0
  7  8  2  0  0  0
  7 28  1  0  0  0
  8  9  1  0  0  0
  8 29  1  0  0  0
  9 10  2  0  0  0
  9 30  1  0  0  0
 10 11  1  0  0  0
 11 12  2  0  0  0
 11 26  1  0  0  0
 12 13  1  0  0  0
 13 14  1  0  0  0
 14 15  1  0  0  0
 14 26  2  0  0  0
 15 16  1  0  0  0
 15 19  1  0  0  0
 15 31  1  0  0  0
 16 17  1  0  0  0
 16 32  1  0  0  0
 16 33  1  0  0  0
 17 18  1  0  0  0
 17 34  1  0  0  0
 17 35  1  0  0  0
 18 36  1  0  0  0
 18 37  1  0  0  0
 18 44  1  0  0  0
 19 20  1  0  0  0
 19 38  1  0  0  0
 19 44  1  0  0  0
 20 21  2  0  0  0
 20 25  1  0  0  0
 21 22  1  0  0  0
 21 39  1  0  0  0
 22 23  2  0  0  0
 22 40  1  0  0  0
 23 24  1  0  0  0
 23 41  1  0  0  0
 24 25  2  0  0  0
 24 42  1  0  0  0
 25 43  1  0  0  0
 44 45  1  0  0  0
 44 46  1  0  0  0
M  CHG  1  44   1
M  END
> <energy>
70.7726

> <i_ionizer_Ion_state_n>
1

> <i_ionizer_Tot_Q>
1

> <s_ionizer_Ion_centers>
44

> <s_ionizer_Ion_types>
N5

> <s_ionizer_Ion_ctrs_in>
19

> <r_ionizer_Ionization_penalty>
0.000148807

> <r_ionizer_Ionization_penalty_charging>
0.000148807

> <r_ionizer_Ionization_penalty_neutral>
0

$$$$
ZINC001211849317
                    3D
 Schrodinger Suite 2019-4.
 46 49  0  0  1  0            999 V2000
   -3.4797   -0.2283    2.9468 F   0  0  0  0  0  0
   -4.3874   -0.2930    1.9340 C   0  0  0  0  0  0
   -4.7780    0.9805    1.6569 F   0  0  0  0  0  0
   -5.4924   -0.8713    2.5040 F   0  0  0  0  0  0
   -3.9023   -1.0523    0.7187 C   0  0  0  0  0  0
   -4.6748   -2.1595    0.2875 C   0  0  0  0  0  0
   -4.3056   -2.9270   -0.8141 C   0  0  0  0  0  0
   -3.1568   -2.6034   -1.5165 C   0  0  0  0  0  0
   -2.3891   -1.5073   -1.1209 C   0  0  0  0  0  0
   -2.7422   -0.7089   -0.0103 C   0  0  0  0  0  0
   -1.8538    0.4166    0.3025 C   0  0  0  0  0  0
   -1.9918    1.2624    1.3322 N   0  0  0  0  0  0
   -0.8737    2.0881    1.2508 O   0  0  0  0  0  0
   -0.1654    1.6762    0.1619 C   0  0  0  0  0  0
    1.1146    2.3877   -0.1221 C   0  0  2  0  0  0
    1.2177    2.8310   -1.5953 C   0  0  0  0  0  0
    2.0236    1.8635   -2.4493 C   0  0  0  0  0  0
    3.4047    1.5655   -1.8611 C   0  0  0  0  0  0
    2.3778    1.6265    0.3895 C   0  0  1  0  0  0
    2.2832    0.1528    0.7832 C   0  0  0  0  0  0
    1.9245   -0.8598   -0.1176 C   0  0  0  0  0  0
    1.8957   -2.2012    0.2736 C   0  0  0  0  0  0
    2.2213   -2.5572    1.5770 C   0  0  0  0  0  0
    2.5723   -1.5707    2.4922 C   0  0  0  0  0  0
    2.6014   -0.2293    2.1006 C   0  0  0  0  0  0
   -0.7476    0.6916   -0.4818 N   0  0  0  0  0  0
   -5.5866   -2.4318    0.8209 H   0  0  0  0  0  0
   -4.9150   -3.7757   -1.1208 H   0  0  0  0  0  0
   -2.8533   -3.1967   -2.3738 H   0  0  0  0  0  0
   -1.4904   -1.2807   -1.6947 H   0  0  0  0  0  0
    1.0743    3.3341    0.4411 H   0  0  0  0  0  0
    1.7222    3.8060   -1.6328 H   0  0  0  0  0  0
    0.2264    2.9881   -2.0382 H   0  0  0  0  0  0
    1.4553    0.9377   -2.5766 H   0  0  0  0  0  0
    2.1426    2.2802   -3.4561 H   0  0  0  0  0  0
    3.6517    0.5131   -2.0375 H   0  0  0  0  0  0
    4.1572    2.1385   -2.4159 H   0  0  0  0  0  0
    2.6174    2.1448    1.3321 H   0  0  0  0  0  0
    1.6460   -0.6272   -1.1390 H   0  0  0  0  0  0
    1.6172   -2.9661   -0.4471 H   0  0  0  0  0  0
    2.2019   -3.6016    1.8782 H   0  0  0  0  0  0
    2.8277   -1.8432    3.5118 H   0  0  0  0  0  0
    2.8785    0.5184    2.8416 H   0  0  0  0  0  0
    3.5956    1.9088   -0.4334 N   0  3  0  0  0  0
    4.3786    1.3570   -0.0637 H   0  0  0  0  0  0
    3.8176    2.9087   -0.3618 H   0  0  0  0  0  0
  1  2  1  0  0  0
  2  3  1  0  0  0
  2  4  1  0  0  0
  2  5  1  0  0  0
  5  6  2  0  0  0
  5 10  1  0  0  0
  6  7  1  0  0  0
  6 27  1  0  0  0
  7  8  2  0  0  0
  7 28  1  0  0  0
  8  9  1  0  0  0
  8 29  1  0  0  0
  9 10  2  0  0  0
  9 30  1  0  0  0
 10 11  1  0  0  0
 11 12  2  0  0  0
 11 26  1  0  0  0
 12 13  1  0  0  0
 13 14  1  0  0  0
 14 15  1  0  0  0
 14 26  2  0  0  0
 15 16  1  0  0  0
 15 19  1  0  0  0
 15 31  1  0  0  0
 16 17  1  0  0  0
 16 32  1  0  0  0
 16 33  1  0  0  0
 17 18  1  0  0  0
 17 34  1  0  0  0
 17 35  1  0  0  0
 18 36  1  0  0  0
 18 37  1  0  0  0
 18 44  1  0  0  0
 19 20  1  0  0  0
 19 38  1  0  0  0
 19 44  1  0  0  0
 20 21  2  0  0  0
 20 25  1  0  0  0
 21 22  1  0  0  0
 21 39  1  0  0  0
 22 23  2  0  0  0
 22 40  1  0  0  0
 23 24  1  0  0  0
 23 41  1  0  0  0
 24 25  2  0  0  0
 24 42  1  0  0  0
 25 43  1  0  0  0
 44 45  1  0  0  0
 44 46  1  0  0  0
M  CHG  1  44   1
M  END
> <energy>
79.563

> <i_ionizer_Ion_state_n>
1

> <i_ionizer_Tot_Q>
1

> <s_ionizer_Ion_centers>
44

> <s_ionizer_Ion_types>
N5

> <s_ionizer_Ion_ctrs_in>
19

> <r_ionizer_Ionization_penalty>
0.000148807

> <r_ionizer_Ionization_penalty_charging>
0.000148807

> <r_ionizer_Ionization_penalty_neutral>
0

$$$$
ZINC001211849318
                    3D
 Schrodinger Suite 2019-4.
 46 49  0  0  1  0            999 V2000
   -4.0449   -1.1167    0.9468 F   0  0  0  0  0  0
   -4.4691   -0.6012   -0.2380 C   0  0  0  0  0  0
   -5.8094   -0.8650   -0.2849 F   0  0  0  0  0  0
   -3.9233   -1.3768   -1.2154 F   0  0  0  0  0  0
   -4.1609    0.8682   -0.3906 C   0  0  0  0  0  0
   -5.1940    1.8183   -0.2699 C   0  0  0  0  0  0
   -4.9344    3.1837   -0.4083 C   0  0  0  0  0  0
   -3.6393    3.6239   -0.6638 C   0  0  0  0  0  0
   -2.6033    2.6979   -0.7860 C   0  0  0  0  0  0
   -2.8547    1.3220   -0.6490 C   0  0  0  0  0  0
   -1.7334    0.4062   -0.7316 C   0  0  0  0  0  0
   -1.0145    0.2038   -1.8434 N   0  0  0  0  0  0
   -0.0027   -0.6617   -1.4187 O   0  0  0  0  0  0
   -0.2171   -0.8789   -0.0886 C   0  0  0  0  0  0
    0.7948   -1.6638    0.6692 C   0  0  1  0  0  0
    1.3332   -2.8873   -0.0759 C   0  0  0  0  0  0
    2.3060   -3.6887    0.8029 C   0  0  0  0  0  0
    2.7657   -2.9351    2.0537 C   0  0  0  0  0  0
    1.9478   -0.7770    1.2351 C   0  0  2  0  0  0
    2.4460    0.3180    0.2964 C   0  0  0  0  0  0
    3.3628    0.0460   -0.7315 C   0  0  0  0  0  0
    3.7813    1.0567   -1.6001 C   0  0  0  0  0  0
    3.2853    2.3509   -1.4595 C   0  0  0  0  0  0
    2.3789    2.6387   -0.4431 C   0  0  0  0  0  0
    1.9624    1.6317    0.4299 C   0  0  0  0  0  0
   -1.2889   -0.2747    0.3714 N   0  0  0  0  0  0
   -6.2147    1.4960   -0.0652 H   0  0  0  0  0  0
   -5.7447    3.9032   -0.3168 H   0  0  0  0  0  0
   -3.4330    4.6870   -0.7636 H   0  0  0  0  0  0
   -1.5912    3.0509   -0.9785 H   0  0  0  0  0  0
    0.2501   -2.0643    1.5386 H   0  0  0  0  0  0
    0.5100   -3.5405   -0.3922 H   0  0  0  0  0  0
    1.8432   -2.5859   -0.9993 H   0  0  0  0  0  0
    1.8319   -4.6266    1.1167 H   0  0  0  0  0  0
    3.1753   -3.9745    0.1983 H   0  0  0  0  0  0
    3.6456   -3.4382    2.4688 H   0  0  0  0  0  0
    1.9966   -2.9666    2.8351 H   0  0  0  0  0  0
    1.5306   -0.2716    2.1174 H   0  0  0  0  0  0
    3.7635   -0.9573   -0.8581 H   0  0  0  0  0  0
    4.4928    0.8311   -2.3895 H   0  0  0  0  0  0
    3.6071    3.1344   -2.1394 H   0  0  0  0  0  0
    1.9922    3.6482   -0.3294 H   0  0  0  0  0  0
    1.2413    1.8759    1.2078 H   0  0  0  0  0  0
    3.1282   -1.5515    1.7276 N   0  3  0  0  0  0
    3.4980   -1.0963    2.5704 H   0  0  0  0  0  0
    3.8505   -1.5592    0.9979 H   0  0  0  0  0  0
  1  2  1  0  0  0
  2  3  1  0  0  0
  2  4  1  0  0  0
  2  5  1  0  0  0
  5  6  2  0  0  0
  5 10  1  0  0  0
  6  7  1  0  0  0
  6 27  1  0  0  0
  7  8  2  0  0  0
  7 28  1  0  0  0
  8  9  1  0  0  0
  8 29  1  0  0  0
  9 10  2  0  0  0
  9 30  1  0  0  0
 10 11  1  0  0  0
 11 12  2  0  0  0
 11 26  1  0  0  0
 12 13  1  0  0  0
 13 14  1  0  0  0
 14 15  1  0  0  0
 14 26  2  0  0  0
 15 16  1  0  0  0
 15 19  1  0  0  0
 15 31  1  0  0  0
 16 17  1  0  0  0
 16 32  1  0  0  0
 16 33  1  0  0  0
 17 18  1  0  0  0
 17 34  1  0  0  0
 17 35  1  0  0  0
 18 36  1  0  0  0
 18 37  1  0  0  0
 18 44  1  0  0  0
 19 20  1  0  0  0
 19 38  1  0  0  0
 19 44  1  0  0  0
 20 21  2  0  0  0
 20 25  1  0  0  0
 21 22  1  0  0  0
 21 39  1  0  0  0
 22 23  2  0  0  0
 22 40  1  0  0  0
 23 24  1  0  0  0
 23 41  1  0  0  0
 24 25  2  0  0  0
 24 42  1  0  0  0
 25 43  1  0  0  0
 44 45  1  0  0  0
 44 46  1  0  0  0
M  CHG  1  44   1
M  END
> <energy>
74.0218

> <i_ionizer_Ion_state_n>
1

> <i_ionizer_Tot_Q>
1

> <s_ionizer_Ion_centers>
44

> <s_ionizer_Ion_types>
N5

> <s_ionizer_Ion_ctrs_in>
19

> <r_ionizer_Ionization_penalty>
0.000148807

> <r_ionizer_Ionization_penalty_charging>
0.000148807

> <r_ionizer_Ionization_penalty_neutral>
0

$$$$
ZINC001211849320
                    3D
 Schrodinger Suite 2019-4.
 46 49  0  0  1  0            999 V2000
   -3.0765    0.1472   -1.9029 F   0  0  0  0  0  0
   -2.8373    1.4533   -1.5990 C   0  0  0  0  0  0
   -3.4818    2.1521   -2.5879 F   0  0  0  0  0  0
   -1.5170    1.6959   -1.8213 F   0  0  0  0  0  0
   -3.3095    1.8536   -0.2162 C   0  0  0  0  0  0
   -4.2314    2.9213   -0.1172 C   0  0  0  0  0  0
   -4.7300    3.3417    1.1146 C   0  0  0  0  0  0
   -4.3262    2.6992    2.2749 C   0  0  0  0  0  0
   -3.4068    1.6508    2.2018 C   0  0  0  0  0  0
   -2.8770    1.2139    0.9680 C   0  0  0  0  0  0
   -1.8815    0.1367    0.9774 C   0  0  0  0  0  0
   -1.4887   -0.5232    2.0833 N   0  0  0  0  0  0
   -0.4810   -1.3732    1.6313 O   0  0  0  0  0  0
   -0.3703   -1.1527    0.2906 C   0  0  0  0  0  0
    0.7008   -1.8720   -0.4553 C   0  0  2  0  0  0
    0.5410   -3.3929   -0.3128 C   0  0  0  0  0  0
    1.6948   -4.1339   -0.9851 C   0  0  0  0  0  0
    3.0513   -3.6098   -0.5170 C   0  0  0  0  0  0
    2.1124   -1.4324    0.0122 C   0  0  2  0  0  0
    2.3563    0.0669   -0.1189 C   0  0  0  0  0  0
    2.2376    0.7314   -1.3494 C   0  0  0  0  0  0
    2.4311    2.1127   -1.4352 C   0  0  0  0  0  0
    2.7562    2.8467   -0.2963 C   0  0  0  0  0  0
    2.8959    2.1992    0.9285 C   0  0  0  0  0  0
    2.6982    0.8190    1.0170 C   0  0  0  0  0  0
   -1.2232   -0.2651   -0.1550 N   0  0  0  0  0  0
   -4.5694    3.4379   -1.0164 H   0  0  0  0  0  0
   -5.4303    4.1718    1.1649 H   0  0  0  0  0  0
   -4.7144    3.0164    3.2401 H   0  0  0  0  0  0
   -3.0973    1.1764    3.1336 H   0  0  0  0  0  0
    0.5771   -1.6285   -1.5200 H   0  0  0  0  0  0
   -0.4137   -3.7163   -0.7479 H   0  0  0  0  0  0
    0.5092   -3.6758    0.7476 H   0  0  0  0  0  0
    1.6123   -4.0245   -2.0740 H   0  0  0  0  0  0
    1.6147   -5.2051   -0.7676 H   0  0  0  0  0  0
    3.2122   -3.8566    0.5383 H   0  0  0  0  0  0
    3.8443   -4.1086   -1.0845 H   0  0  0  0  0  0
    2.2148   -1.6865    1.0774 H   0  0  0  0  0  0
    1.9885    0.1793   -2.2536 H   0  0  0  0  0  0
    2.3218    2.6177   -2.3923 H   0  0  0  0  0  0
    2.8983    3.9220   -0.3624 H   0  0  0  0  0  0
    3.1532    2.7677    1.8183 H   0  0  0  0  0  0
    2.8037    0.3367    1.9857 H   0  0  0  0  0  0
    3.1737   -2.1612   -0.7301 N   0  3  0  0  0  0
    4.0935   -1.8479   -0.3985 H   0  0  0  0  0  0
    3.0841   -1.9589   -1.7327 H   0  0  0  0  0  0
  1  2  1  0  0  0
  2  3  1  0  0  0
  2  4  1  0  0  0
  2  5  1  0  0  0
  5  6  2  0  0  0
  5 10  1  0  0  0
  6  7  1  0  0  0
  6 27  1  0  0  0
  7  8  2  0  0  0
  7 28  1  0  0  0
  8  9  1  0  0  0
  8 29  1  0  0  0
  9 10  2  0  0  0
  9 30  1  0  0  0
 10 11  1  0  0  0
 11 12  2  0  0  0
 11 26  1  0  0  0
 12 13  1  0  0  0
 13 14  1  0  0  0
 14 15  1  0  0  0
 14 26  2  0  0  0
 15 16  1  0  0  0
 15 19  1  0  0  0
 15 31  1  0  0  0
 16 17  1  0  0  0
 16 32  1  0  0  0
 16 33  1  0  0  0
 17 18  1  0  0  0
 17 34  1  0  0  0
 17 35  1  0  0  0
 18 36  1  0  0  0
 18 37  1  0  0  0
 18 44  1  0  0  0
 19 20  1  0  0  0
 19 38  1  0  0  0
 19 44  1  0  0  0
 20 21  2  0  0  0
 20 25  1  0  0  0
 21 22  1  0  0  0
 21 39  1  0  0  0
 22 23  2  0  0  0
 22 40  1  0  0  0
 23 24  1  0  0  0
 23 41  1  0  0  0
 24 25  2  0  0  0
 24 42  1  0  0  0
 25 43  1  0  0  0
 44 45  1  0  0  0
 44 46  1  0  0  0
M  CHG  1  44   1
M  END
> <energy>
63.794

> <i_ionizer_Ion_state_n>
1

> <i_ionizer_Tot_Q>
1

> <s_ionizer_Ion_centers>
44

> <s_ionizer_Ion_types>
N5

> <s_ionizer_Ion_ctrs_in>
19

> <r_ionizer_Ionization_penalty>
0.000148807

> <r_ionizer_Ionization_penalty_charging>
0.000148807

> <r_ionizer_Ionization_penalty_neutral>
0

$$$$
ZINC001211849345
                    3D
 Schrodinger Suite 2019-4.
 47 49  0  0  1  0            999 V2000
   -3.4723   -1.8254    0.6389 C   0  0  0  0  0  0
   -2.9802   -0.8907   -0.4287 C   0  0  0  0  0  0
   -3.3871    0.4452   -0.4112 C   0  0  0  0  0  0
   -2.8534    1.3180   -1.3511 C   0  0  0  0  0  0
   -3.0683    2.6786   -1.1791 O   0  0  0  0  0  0
   -2.1000    3.2362   -0.3650 C   0  0  0  0  0  0
   -2.4122    3.5044    0.9698 C   0  0  0  0  0  0
   -1.4096    3.9540    1.8322 C   0  0  0  0  0  0
   -0.1133    4.1558    1.3534 C   0  0  0  0  0  0
    0.1817    3.9338    0.0081 C   0  0  0  0  0  0
   -0.8134    3.4787   -0.8560 C   0  0  0  0  0  0
   -2.0310    0.9452   -2.3563 N   0  0  0  0  0  0
   -1.6424   -0.3455   -2.3466 C   0  0  0  0  0  0
   -2.0401   -1.2910   -1.3941 C   0  0  0  0  0  0
   -1.3377   -2.5271   -1.2448 N   0  0  0  0  0  0
   -0.2943   -2.5956   -0.2725 C   0  0  0  0  0  0
   -0.1952   -3.7146    0.5710 C   0  0  0  0  0  0
    0.7912   -3.7631    1.5675 C   0  0  0  0  0  0
    1.7119   -2.7246    1.6882 C   0  0  0  0  0  0
    2.6493   -2.7863    2.6439 F   0  0  0  0  0  0
    1.6641   -1.6512    0.8073 C   0  0  0  0  0  0
    2.6315   -0.5429    0.9004 C   0  0  0  0  0  0
    2.5377    0.2097    1.8653 O   0  0  0  0  0  0
    3.5319   -0.3647   -0.1500 N   0  0  0  0  0  0
    4.3618    0.8295   -0.1596 C   0  0  0  0  0  0
    3.8281   -1.3624   -1.1701 C   0  0  0  0  0  0
    0.6628   -1.5769   -0.1642 C   0  0  0  0  0  0
   -2.7930   -1.8283    1.4978 H   0  0  0  0  0  0
   -4.4678   -1.5331    0.9941 H   0  0  0  0  0  0
   -3.5627   -2.8470    0.2537 H   0  0  0  0  0  0
   -4.0539    0.8229    0.3541 H   0  0  0  0  0  0
   -3.4153    3.3311    1.3482 H   0  0  0  0  0  0
   -1.6295    4.1169    2.8862 H   0  0  0  0  0  0
    0.6743    4.4701    2.0352 H   0  0  0  0  0  0
    1.1966    4.0728   -0.3591 H   0  0  0  0  0  0
   -0.5823    3.2743   -1.8977 H   0  0  0  0  0  0
   -0.8972   -0.5895   -3.0981 H   0  0  0  0  0  0
   -0.9190   -2.7675   -2.1449 H   0  0  0  0  0  0
   -0.9191   -4.5226    0.4966 H   0  0  0  0  0  0
    0.8498   -4.6026    2.2541 H   0  0  0  0  0  0
    4.0037    1.5913    0.5414 H   0  0  0  0  0  0
    4.3606    1.2572   -1.1689 H   0  0  0  0  0  0
    5.3827    0.5487    0.1166 H   0  0  0  0  0  0
    3.3705   -2.3291   -0.9623 H   0  0  0  0  0  0
    4.9134   -1.5017   -1.2088 H   0  0  0  0  0  0
    3.4694   -0.9996   -2.1387 H   0  0  0  0  0  0
    0.6172   -0.6915   -0.7964 H   0  0  0  0  0  0
  1  2  1  0  0  0
  1 28  1  0  0  0
  1 29  1  0  0  0
  1 30  1  0  0  0
  2  3  2  0  0  0
  2 14  1  0  0  0
  3  4  1  0  0  0
  3 31  1  0  0  0
  4  5  1  0  0  0
  4 12  2  0  0  0
  5  6  1  0  0  0
  6  7  2  0  0  0
  6 11  1  0  0  0
  7  8  1  0  0  0
  7 32  1  0  0  0
  8  9  2  0  0  0
  8 33  1  0  0  0
  9 10  1  0  0  0
  9 34  1  0  0  0
 10 11  2  0  0  0
 10 35  1  0  0  0
 11 36  1  0  0  0
 12 13  1  0  0  0
 13 14  2  0  0  0
 13 37  1  0  0  0
 14 15  1  0  0  0
 15 16  1  0  0  0
 15 38  1  0  0  0
 16 17  2  0  0  0
 16 27  1  0  0  0
 17 18  1  0  0  0
 17 39  1  0  0  0
 18 19  2  0  0  0
 18 40  1  0  0  0
 19 20  1  0  0  0
 19 21  1  0  0  0
 21 22  1  0  0  0
 21 27  2  0  0  0
 22 23  2  0  0  0
 22 24  1  0  0  0
 24 25  1  0  0  0
 24 26  1  0  0  0
 25 41  1  0  0  0
 25 42  1  0  0  0
 25 43  1  0  0  0
 26 44  1  0  0  0
 26 45  1  0  0  0
 26 46  1  0  0  0
 27 47  1  0  0  0
M  END
> <energy>
80.6342

> <i_ionizer_Ion_state_n>
0

> <i_ionizer_Tot_Q>
0

> <s_ionizer_Ion_centers>


> <s_ionizer_Ion_types>


> <s_ionizer_Ion_ctrs_in>


> <r_ionizer_Ionization_penalty>
0.00741239

> <r_ionizer_Ionization_penalty_charging>
0

> <r_ionizer_Ionization_penalty_neutral>
0.00741239

$$$$
ZINC001211849423
                    3D
 Schrodinger Suite 2019-4.
 43 46  0  0  1  0            999 V2000
    7.0380   -0.3642   -1.2048 F   0  0  0  0  0  0
    5.9846   -0.0191   -0.4499 C   0  0  0  0  0  0
    4.7193   -0.4712   -0.8250 C   0  0  0  0  0  0
    3.5968   -0.1311   -0.0578 C   0  0  0  0  0  0
    2.2622   -0.6052   -0.4147 C   0  0  0  0  0  0
    1.9552   -1.1815   -1.5881 N   0  0  0  0  0  0
    0.5956   -1.4630   -1.4756 O   0  0  0  0  0  0
    0.2127   -1.0392   -0.2376 C   0  0  0  0  0  0
   -1.2034   -1.2751    0.1697 C   0  0  2  0  0  0
   -1.5442   -2.7700    0.1380 C   0  0  0  0  0  0
   -2.9983   -3.0278    0.5430 C   0  0  0  0  0  0
   -3.8551   -1.7611    0.5759 C   0  0  0  0  0  0
   -2.2082   -0.4789   -0.7145 C   0  0  2  0  0  0
   -2.1355    1.0308   -0.4974 C   0  0  0  0  0  0
   -2.0570    1.8904   -1.6056 C   0  0  0  0  0  0
   -1.9891    3.2744   -1.4322 C   0  0  0  0  0  0
   -2.0012    3.8186   -0.1496 C   0  0  0  0  0  0
   -2.1023    2.9819    0.9588 C   0  0  0  0  0  0
   -2.1821    1.5989    0.7858 C   0  0  0  0  0  0
    1.1934   -0.5042    0.4517 N   0  0  0  0  0  0
    3.7732    0.6721    1.0824 C   0  0  0  0  0  0
    5.0457    1.1254    1.4511 C   0  0  0  0  0  0
    6.1542    0.7738    0.6836 C   0  0  0  0  0  0
    7.7170    1.3195    1.1512 Cl  0  0  0  0  0  0
    4.6299   -1.0943   -1.7115 H   0  0  0  0  0  0
   -1.2870   -0.9561    1.2164 H   0  0  0  0  0  0
   -0.8723   -3.3378    0.7928 H   0  0  0  0  0  0
   -1.3833   -3.1703   -0.8724 H   0  0  0  0  0  0
   -3.0258   -3.4951    1.5344 H   0  0  0  0  0  0
   -3.4304   -3.7595   -0.1526 H   0  0  0  0  0  0
   -4.9117   -2.0483    0.6034 H   0  0  0  0  0  0
   -3.6664   -1.1890    1.4924 H   0  0  0  0  0  0
   -1.9385   -0.6653   -1.7625 H   0  0  0  0  0  0
   -2.0508    1.4871   -2.6157 H   0  0  0  0  0  0
   -1.9231    3.9273   -2.2994 H   0  0  0  0  0  0
   -1.9367    4.8946   -0.0151 H   0  0  0  0  0  0
   -2.1215    3.4047    1.9599 H   0  0  0  0  0  0
   -2.2802    0.9744    1.6689 H   0  0  0  0  0  0
    2.9144    0.9519    1.6931 H   0  0  0  0  0  0
    5.1597    1.7488    2.3345 H   0  0  0  0  0  0
   -3.6304   -0.9300   -0.6170 N   0  3  0  0  0  0
   -3.8644   -1.4778   -1.4533 H   0  0  0  0  0  0
   -4.2391   -0.1046   -0.5672 H   0  0  0  0  0  0
  1  2  1  0  0  0
  2  3  2  0  0  0
  2 23  1  0  0  0
  3  4  1  0  0  0
  3 25  1  0  0  0
  4  5  1  0  0  0
  4 21  2  0  0  0
  5  6  2  0  0  0
  5 20  1  0  0  0
  6  7  1  0  0  0
  7  8  1  0  0  0
  8  9  1  0  0  0
  8 20  2  0  0  0
  9 10  1  0  0  0
  9 13  1  0  0  0
  9 26  1  0  0  0
 10 11  1  0  0  0
 10 27  1  0  0  0
 10 28  1  0  0  0
 11 12  1  0  0  0
 11 29  1  0  0  0
 11 30  1  0  0  0
 12 31  1  0  0  0
 12 32  1  0  0  0
 12 41  1  0  0  0
 13 14  1  0  0  0
 13 33  1  0  0  0
 13 41  1  0  0  0
 14 15  2  0  0  0
 14 19  1  0  0  0
 15 16  1  0  0  0
 15 34  1  0  0  0
 16 17  2  0  0  0
 16 35  1  0  0  0
 17 18  1  0  0  0
 17 36  1  0  0  0
 18 19  2  0  0  0
 18 37  1  0  0  0
 19 38  1  0  0  0
 21 22  1  0  0  0
 21 39  1  0  0  0
 22 23  2  0  0  0
 22 40  1  0  0  0
 23 24  1  0  0  0
 41 42  1  0  0  0
 41 43  1  0  0  0
M  CHG  1  41   1
M  END
> <energy>
63.6313

> <i_ionizer_Ion_state_n>
1

> <i_ionizer_Tot_Q>
1

> <s_ionizer_Ion_centers>
41

> <s_ionizer_Ion_types>
N5

> <s_ionizer_Ion_ctrs_in>
13

> <r_ionizer_Ionization_penalty>
0.000148807

> <r_ionizer_Ionization_penalty_charging>
0.000148807

> <r_ionizer_Ionization_penalty_neutral>
0

$$$$
ZINC001211849424
                    3D
 Schrodinger Suite 2019-4.
 43 46  0  0  1  0            999 V2000
    6.7603    0.4583    0.5462 F   0  0  0  0  0  0
    5.5788    0.5182   -0.0860 C   0  0  0  0  0  0
    4.4525    0.0137    0.5605 C   0  0  0  0  0  0
    3.2008    0.0645   -0.0679 C   0  0  0  0  0  0
    2.0059   -0.4334    0.6025 C   0  0  0  0  0  0
    1.9448   -0.7096    1.9149 N   0  0  0  0  0  0
    0.6233   -1.1003    2.1097 O   0  0  0  0  0  0
    0.0118   -1.0359    0.8906 C   0  0  0  0  0  0
   -1.4191   -1.4687    0.8527 C   0  0  2  0  0  0
   -1.5154   -2.9124    0.3152 C   0  0  0  0  0  0
   -2.5274   -3.0600   -0.8154 C   0  0  0  0  0  0
   -2.3326   -1.9849   -1.8808 C   0  0  0  0  0  0
   -2.3628   -0.4962    0.0933 C   0  0  1  0  0  0
   -2.2169    0.9534    0.5451 C   0  0  0  0  0  0
   -2.8719    1.4006    1.7043 C   0  0  0  0  0  0
   -2.7293    2.7202    2.1417 C   0  0  0  0  0  0
   -1.9314    3.6111    1.4271 C   0  0  0  0  0  0
   -1.2634    3.1808    0.2831 C   0  0  0  0  0  0
   -1.4048    1.8623   -0.1536 C   0  0  0  0  0  0
    0.8248   -0.6564   -0.0708 N   0  0  0  0  0  0
    3.1096    0.6215   -1.3551 C   0  0  0  0  0  0
    4.2449    1.1308   -1.9964 C   0  0  0  0  0  0
    5.4821    1.0776   -1.3575 C   0  0  0  0  0  0
    6.8736    1.7024   -2.1525 Cl  0  0  0  0  0  0
    4.5682   -0.4138    1.5535 H   0  0  0  0  0  0
   -1.7691   -1.4909    1.8961 H   0  0  0  0  0  0
   -1.7968   -3.5875    1.1332 H   0  0  0  0  0  0
   -0.5404   -3.2676   -0.0425 H   0  0  0  0  0  0
   -2.4231   -4.0518   -1.2703 H   0  0  0  0  0  0
   -3.5480   -3.0068   -0.4135 H   0  0  0  0  0  0
   -1.3882   -2.1624   -2.4078 H   0  0  0  0  0  0
   -3.1267   -2.0761   -2.6304 H   0  0  0  0  0  0
   -3.3920   -0.7795    0.3607 H   0  0  0  0  0  0
   -3.4996    0.7237    2.2797 H   0  0  0  0  0  0
   -3.2368    3.0529    3.0441 H   0  0  0  0  0  0
   -1.8251    4.6392    1.7624 H   0  0  0  0  0  0
   -0.6278    3.8670   -0.2700 H   0  0  0  0  0  0
   -0.8631    1.5379   -1.0408 H   0  0  0  0  0  0
    2.1459    0.6724   -1.8616 H   0  0  0  0  0  0
    4.1535    1.5691   -2.9861 H   0  0  0  0  0  0
   -2.3079   -0.5864   -1.3958 N   0  3  0  0  0  0
   -1.4420   -0.1406   -1.7210 H   0  0  0  0  0  0
   -3.1166   -0.0885   -1.7859 H   0  0  0  0  0  0
  1  2  1  0  0  0
  2  3  2  0  0  0
  2 23  1  0  0  0
  3  4  1  0  0  0
  3 25  1  0  0  0
  4  5  1  0  0  0
  4 21  2  0  0  0
  5  6  2  0  0  0
  5 20  1  0  0  0
  6  7  1  0  0  0
  7  8  1  0  0  0
  8  9  1  0  0  0
  8 20  2  0  0  0
  9 10  1  0  0  0
  9 13  1  0  0  0
  9 26  1  0  0  0
 10 11  1  0  0  0
 10 27  1  0  0  0
 10 28  1  0  0  0
 11 12  1  0  0  0
 11 29  1  0  0  0
 11 30  1  0  0  0
 12 31  1  0  0  0
 12 32  1  0  0  0
 12 41  1  0  0  0
 13 14  1  0  0  0
 13 33  1  0  0  0
 13 41  1  0  0  0
 14 15  2  0  0  0
 14 19  1  0  0  0
 15 16  1  0  0  0
 15 34  1  0  0  0
 16 17  2  0  0  0
 16 35  1  0  0  0
 17 18  1  0  0  0
 17 36  1  0  0  0
 18 19  2  0  0  0
 18 37  1  0  0  0
 19 38  1  0  0  0
 21 22  1  0  0  0
 21 39  1  0  0  0
 22 23  2  0  0  0
 22 40  1  0  0  0
 23 24  1  0  0  0
 41 42  1  0  0  0
 41 43  1  0  0  0
M  CHG  1  41   1
M  END
> <energy>
69.4057

> <i_ionizer_Ion_state_n>
1

> <i_ionizer_Tot_Q>
1

> <s_ionizer_Ion_centers>
41

> <s_ionizer_Ion_types>
N5

> <s_ionizer_Ion_ctrs_in>
13

> <r_ionizer_Ionization_penalty>
0.000148807

> <r_ionizer_Ionization_penalty_charging>
0.000148807

> <r_ionizer_Ionization_penalty_neutral>
0

$$$$
ZINC001211849425
                    3D
 Schrodinger Suite 2019-4.
 43 46  0  0  1  0            999 V2000
    5.9288    1.6558   -2.0120 F   0  0  0  0  0  0
    5.2900    1.6028   -0.8330 C   0  0  0  0  0  0
    4.1374    0.8260   -0.7337 C   0  0  0  0  0  0
    3.4394    0.7559    0.4798 C   0  0  0  0  0  0
    2.1914    0.0065    0.5613 C   0  0  0  0  0  0
    1.6428   -0.4242    1.7093 N   0  0  0  0  0  0
    0.4472   -1.0138    1.3024 O   0  0  0  0  0  0
    0.3771   -0.8593   -0.0508 C   0  0  0  0  0  0
   -0.8444   -1.3563   -0.7481 C   0  0  1  0  0  0
   -0.7102   -2.8603   -1.0262 C   0  0  0  0  0  0
   -1.9681   -3.4021   -1.6979 C   0  0  0  0  0  0
   -3.2207   -3.0580   -0.8973 C   0  0  0  0  0  0
   -2.1524   -1.0779    0.0427 C   0  0  1  0  0  0
   -2.3724    0.4045    0.3161 C   0  0  0  0  0  0
   -2.3833    0.8836    1.6355 C   0  0  0  0  0  0
   -2.5598    2.2429    1.8978 C   0  0  0  0  0  0
   -2.7294    3.1398    0.8465 C   0  0  0  0  0  0
   -2.7412    2.6771   -0.4677 C   0  0  0  0  0  0
   -2.5653    1.3177   -0.7322 C   0  0  0  0  0  0
    1.4449   -0.2845   -0.5590 N   0  0  0  0  0  0
    3.9354    1.4600    1.5893 C   0  0  0  0  0  0
    5.0904    2.2445    1.4808 C   0  0  0  0  0  0
    5.7640    2.3213    0.2625 C   0  0  0  0  0  0
    7.1651    3.3125    0.1276 Cl  0  0  0  0  0  0
    3.7882    0.2934   -1.6147 H   0  0  0  0  0  0
   -0.8925   -0.8414   -1.7179 H   0  0  0  0  0  0
   -0.5375   -3.4020   -0.0875 H   0  0  0  0  0  0
    0.1617   -3.0556   -1.6622 H   0  0  0  0  0  0
   -1.8860   -4.4885   -1.8153 H   0  0  0  0  0  0
   -2.0496   -2.9776   -2.7063 H   0  0  0  0  0  0
   -3.2231   -3.5923    0.0601 H   0  0  0  0  0  0
   -4.1047   -3.3940   -1.4516 H   0  0  0  0  0  0
   -2.0927   -1.5919    1.0119 H   0  0  0  0  0  0
   -2.2443    0.1999    2.4705 H   0  0  0  0  0  0
   -2.5590    2.5998    2.9234 H   0  0  0  0  0  0
   -2.8568    4.1997    1.0513 H   0  0  0  0  0  0
   -2.8863    3.3735   -1.2886 H   0  0  0  0  0  0
   -2.5858    0.9709   -1.7636 H   0  0  0  0  0  0
    3.4074    1.4278    2.5420 H   0  0  0  0  0  0
    5.4472    2.8018    2.3436 H   0  0  0  0  0  0
   -3.3425   -1.6087   -0.6751 N   0  3  0  0  0  0
   -3.4259   -1.1357   -1.5826 H   0  0  0  0  0  0
   -4.1827   -1.4243   -0.1145 H   0  0  0  0  0  0
  1  2  1  0  0  0
  2  3  2  0  0  0
  2 23  1  0  0  0
  3  4  1  0  0  0
  3 25  1  0  0  0
  4  5  1  0  0  0
  4 21  2  0  0  0
  5  6  2  0  0  0
  5 20  1  0  0  0
  6  7  1  0  0  0
  7  8  1  0  0  0
  8  9  1  0  0  0
  8 20  2  0  0  0
  9 10  1  0  0  0
  9 13  1  0  0  0
  9 26  1  0  0  0
 10 11  1  0  0  0
 10 27  1  0  0  0
 10 28  1  0  0  0
 11 12  1  0  0  0
 11 29  1  0  0  0
 11 30  1  0  0  0
 12 31  1  0  0  0
 12 32  1  0  0  0
 12 41  1  0  0  0
 13 14  1  0  0  0
 13 33  1  0  0  0
 13 41  1  0  0  0
 14 15  2  0  0  0
 14 19  1  0  0  0
 15 16  1  0  0  0
 15 34  1  0  0  0
 16 17  2  0  0  0
 16 35  1  0  0  0
 17 18  1  0  0  0
 17 36  1  0  0  0
 18 19  2  0  0  0
 18 37  1  0  0  0
 19 38  1  0  0  0
 21 22  1  0  0  0
 21 39  1  0  0  0
 22 23  2  0  0  0
 22 40  1  0  0  0
 23 24  1  0  0  0
 41 42  1  0  0  0
 41 43  1  0  0  0
M  CHG  1  41   1
M  END
> <energy>
57.087

> <i_ionizer_Ion_state_n>
1

> <i_ionizer_Tot_Q>
1

> <s_ionizer_Ion_centers>
41

> <s_ionizer_Ion_types>
N5

> <s_ionizer_Ion_ctrs_in>
13

> <r_ionizer_Ionization_penalty>
0.000148807

> <r_ionizer_Ionization_penalty_charging>
0.000148807

> <r_ionizer_Ionization_penalty_neutral>
0

$$$$
ZINC001211849426
                    3D
 Schrodinger Suite 2019-4.
 43 46  0  0  1  0            999 V2000
    3.4130    2.8252    3.4200 F   0  0  0  0  0  0
    3.4007    2.8128    2.0785 C   0  0  0  0  0  0
    2.6879    1.8090    1.4273 C   0  0  0  0  0  0
    2.6488    1.7651    0.0264 C   0  0  0  0  0  0
    1.8810    0.7238   -0.6475 C   0  0  0  0  0  0
    1.7267    0.6418   -1.9790 N   0  0  0  0  0  0
    0.8661   -0.4399   -2.1465 O   0  0  0  0  0  0
    0.5953   -0.9176   -0.8971 C   0  0  0  0  0  0
   -0.3498   -2.0673   -0.8126 C   0  0  1  0  0  0
    0.1907   -3.1310    0.1586 C   0  0  0  0  0  0
   -0.8104   -4.2701    0.3114 C   0  0  0  0  0  0
   -2.2073   -3.7848    0.7047 C   0  0  0  0  0  0
   -1.8310   -1.6813   -0.4935 C   0  0  2  0  0  0
   -2.1283   -0.1859   -0.4639 C   0  0  0  0  0  0
   -2.5860    0.4663   -1.6205 C   0  0  0  0  0  0
   -2.8131    1.8447   -1.6203 C   0  0  0  0  0  0
   -2.5857    2.5904   -0.4656 C   0  0  0  0  0  0
   -2.1349    1.9588    0.6910 C   0  0  0  0  0  0
   -1.9080    0.5812    0.6931 C   0  0  0  0  0  0
    1.2271   -0.2663    0.0521 N   0  0  0  0  0  0
    3.3420    2.7478   -0.7011 C   0  0  0  0  0  0
    4.0577    3.7535   -0.0398 C   0  0  0  0  0  0
    4.0855    3.7848    1.3532 C   0  0  0  0  0  0
    4.9656    5.0250    2.1581 Cl  0  0  0  0  0  0
    2.1617    1.0684    2.0246 H   0  0  0  0  0  0
   -0.3646   -2.5444   -1.8045 H   0  0  0  0  0  0
    1.1459   -3.5285   -0.2083 H   0  0  0  0  0  0
    0.3969   -2.6886    1.1422 H   0  0  0  0  0  0
   -0.8766   -4.8140   -0.6390 H   0  0  0  0  0  0
   -0.4391   -4.9849    1.0558 H   0  0  0  0  0  0
   -2.4496   -4.1687    1.7025 H   0  0  0  0  0  0
   -2.9478   -4.2219    0.0244 H   0  0  0  0  0  0
   -2.4417   -2.0913   -1.3126 H   0  0  0  0  0  0
   -2.7584   -0.0915   -2.5380 H   0  0  0  0  0  0
   -3.1596    2.3380   -2.5246 H   0  0  0  0  0  0
   -2.7547    3.6642   -0.4694 H   0  0  0  0  0  0
   -1.9503    2.5396    1.5910 H   0  0  0  0  0  0
   -1.5357    0.1075    1.5997 H   0  0  0  0  0  0
    3.3279    2.7402   -1.7906 H   0  0  0  0  0  0
    4.5875    4.5064   -0.6186 H   0  0  0  0  0  0
   -2.3575   -2.3205    0.7469 N   0  3  0  0  0  0
   -3.3533   -2.0900    0.8444 H   0  0  0  0  0  0
   -1.8410   -1.9553    1.5557 H   0  0  0  0  0  0
  1  2  1  0  0  0
  2  3  2  0  0  0
  2 23  1  0  0  0
  3  4  1  0  0  0
  3 25  1  0  0  0
  4  5  1  0  0  0
  4 21  2  0  0  0
  5  6  2  0  0  0
  5 20  1  0  0  0
  6  7  1  0  0  0
  7  8  1  0  0  0
  8  9  1  0  0  0
  8 20  2  0  0  0
  9 10  1  0  0  0
  9 13  1  0  0  0
  9 26  1  0  0  0
 10 11  1  0  0  0
 10 27  1  0  0  0
 10 28  1  0  0  0
 11 12  1  0  0  0
 11 29  1  0  0  0
 11 30  1  0  0  0
 12 31  1  0  0  0
 12 32  1  0  0  0
 12 41  1  0  0  0
 13 14  1  0  0  0
 13 33  1  0  0  0
 13 41  1  0  0  0
 14 15  2  0  0  0
 14 19  1  0  0  0
 15 16  1  0  0  0
 15 34  1  0  0  0
 16 17  2  0  0  0
 16 35  1  0  0  0
 17 18  1  0  0  0
 17 36  1  0  0  0
 18 19  2  0  0  0
 18 37  1  0  0  0
 19 38  1  0  0  0
 21 22  1  0  0  0
 21 39  1  0  0  0
 22 23  2  0  0  0
 22 40  1  0  0  0
 23 24  1  0  0  0
 41 42  1  0  0  0
 41 43  1  0  0  0
M  CHG  1  41   1
M  END
> <energy>
69.6025

> <i_ionizer_Ion_state_n>
1

> <i_ionizer_Tot_Q>
1

> <s_ionizer_Ion_centers>
41

> <s_ionizer_Ion_types>
N5

> <s_ionizer_Ion_ctrs_in>
13

> <r_ionizer_Ionization_penalty>
0.000148807

> <r_ionizer_Ionization_penalty_charging>
0.000148807

> <r_ionizer_Ionization_penalty_neutral>
0

$$$$
ZINC001211849599
                    3D
 Schrodinger Suite 2019-4.
 55 59  0  0  1  0            999 V2000
    1.5247   -3.1508    2.0633 C   0  0  0  0  0  0
    1.7382   -3.3367    0.6994 C   0  0  0  0  0  0
    2.5667   -2.4603   -0.0049 C   0  0  0  0  0  0
    3.1888   -1.3850    0.6471 C   0  0  0  0  0  0
    4.0619   -0.3934   -0.1126 C   0  0  2  0  0  0
    6.1121   -0.1812   -1.3948 C   0  0  0  0  0  0
    5.4099    0.6387   -2.4745 C   0  0  0  0  0  0
    4.2040    1.3857   -1.9098 C   0  0  0  0  0  0
    3.2705    0.4159   -1.1756 C   0  0  2  0  0  0
    2.1178    1.1382   -0.5740 C   0  0  0  0  0  0
    0.8568    1.1010   -0.9303 N   0  0  0  0  0  0
    0.2437    1.7595    0.1070 C   0  0  0  0  0  0
   -1.1954    1.7471    0.2297 C   0  0  0  0  0  0
   -1.7957    0.9481    1.2065 C   0  0  0  0  0  0
   -3.1837    0.7784    1.2222 C   0  0  0  0  0  0
   -4.0038    1.4099    0.2768 C   0  0  0  0  0  0
   -5.3908    1.2194    0.1857 N   0  0  0  0  0  0
   -6.1179    0.6610    1.3355 C   0  0  0  0  0  0
   -6.5170   -0.7642    0.9425 C   0  0  0  0  0  0
   -5.9285   -0.9879   -0.4424 C   0  0  0  0  0  0
   -5.7670    0.4208   -0.9962 C   0  0  0  0  0  0
   -3.3823    2.2555   -0.6602 C   0  0  0  0  0  0
   -1.9942    2.4165   -0.6965 C   0  0  0  0  0  0
    1.0837    2.2684    1.0210 N   0  0  0  0  0  0
    2.3399    1.8713    0.5559 O   0  0  0  0  0  0
    2.9729   -1.2179    2.0249 C   0  0  0  0  0  0
    2.1443   -2.0960    2.7274 C   0  0  0  0  0  0
    0.8769   -3.8305    2.6103 H   0  0  0  0  0  0
    1.2560   -4.1608    0.1810 H   0  0  0  0  0  0
    2.7233   -2.6208   -1.0695 H   0  0  0  0  0  0
    4.4818    0.3089    0.6217 H   0  0  0  0  0  0
    6.9231   -0.7587   -1.8523 H   0  0  0  0  0  0
    6.5744    0.4832   -0.6549 H   0  0  0  0  0  0
    6.1143    1.3550   -2.9132 H   0  0  0  0  0  0
    5.0824   -0.0233   -3.2856 H   0  0  0  0  0  0
    3.6677    1.8950   -2.7201 H   0  0  0  0  0  0
    4.5523    2.1686   -1.2235 H   0  0  0  0  0  0
    2.8614   -0.2808   -1.9219 H   0  0  0  0  0  0
   -1.1838    0.4082    1.9256 H   0  0  0  0  0  0
   -3.5925    0.0952    1.9592 H   0  0  0  0  0  0
   -5.5852    0.7000    2.2908 H   0  0  0  0  0  0
   -7.0285    1.2561    1.4801 H   0  0  0  0  0  0
   -7.6089   -0.8536    0.9187 H   0  0  0  0  0  0
   -6.1434   -1.5034    1.6584 H   0  0  0  0  0  0
   -4.9506   -1.4775   -0.3555 H   0  0  0  0  0  0
   -6.5642   -1.6153   -1.0738 H   0  0  0  0  0  0
   -6.7276    0.7915   -1.3753 H   0  0  0  0  0  0
   -5.0494    0.4513   -1.8244 H   0  0  0  0  0  0
   -3.9933    2.7803   -1.3915 H   0  0  0  0  0  0
   -1.5444    3.0407   -1.4646 H   0  0  0  0  0  0
    3.4358   -0.3916    2.5611 H   0  0  0  0  0  0
    1.9801   -1.9489    3.7917 H   0  0  0  0  0  0
    5.1957   -1.1201   -0.7355 N   0  3  0  0  0  0
    5.7062   -1.6356   -0.0089 H   0  0  0  0  0  0
    4.8313   -1.7808   -1.4319 H   0  0  0  0  0  0
  1  2  2  0  0  0
  1 27  1  0  0  0
  1 28  1  0  0  0
  2  3  1  0  0  0
  2 29  1  0  0  0
  3  4  2  0  0  0
  3 30  1  0  0  0
  4  5  1  0  0  0
  4 26  1  0  0  0
  5  9  1  0  0  0
  5 31  1  0  0  0
  5 53  1  0  0  0
  6  7  1  0  0  0
  6 32  1  0  0  0
  6 33  1  0  0  0
  6 53  1  0  0  0
  7  8  1  0  0  0
  7 34  1  0  0  0
  7 35  1  0  0  0
  8  9  1  0  0  0
  8 36  1  0  0  0
  8 37  1  0  0  0
  9 10  1  0  0  0
  9 38  1  0  0  0
 10 11  2  0  0  0
 10 25  1  0  0  0
 11 12  1  0  0  0
 12 13  1  0  0  0
 12 24  2  0  0  0
 13 14  2  0  0  0
 13 23  1  0  0  0
 14 15  1  0  0  0
 14 39  1  0  0  0
 15 16  2  0  0  0
 15 40  1  0  0  0
 16 17  1  0  0  0
 16 22  1  0  0  0
 17 18  1  0  0  0
 17 21  1  0  0  0
 18 19  1  0  0  0
 18 41  1  0  0  0
 18 42  1  0  0  0
 19 20  1  0  0  0
 19 43  1  0  0  0
 19 44  1  0  0  0
 20 21  1  0  0  0
 20 45  1  0  0  0
 20 46  1  0  0  0
 21 47  1  0  0  0
 21 48  1  0  0  0
 22 23  2  0  0  0
 22 49  1  0  0  0
 23 50  1  0  0  0
 24 25  1  0  0  0
 26 27  2  0  0  0
 26 51  1  0  0  0
 27 52  1  0  0  0
 53 54  1  0  0  0
 53 55  1  0  0  0
M  CHG  1  53   1
M  END
> <energy>
73.2128

> <i_ionizer_Ion_state_n>
1

> <i_ionizer_Tot_Q>
1

> <s_ionizer_Ion_centers>
53

> <s_ionizer_Ion_types>
N5

> <s_ionizer_Ion_ctrs_in>
6

> <r_ionizer_Ionization_penalty>
0.00311085

> <r_ionizer_Ionization_penalty_charging>
0.000148807

> <r_ionizer_Ionization_penalty_neutral>
0.00296205

$$$$
ZINC001211849600
                    3D
 Schrodinger Suite 2019-4.
 55 59  0  0  1  0            999 V2000
    3.3697    3.2967    1.5850 C   0  0  0  0  0  0
    2.4248    2.2991    1.7859 C   0  0  0  0  0  0
    2.7018    0.9908    1.4003 C   0  0  0  0  0  0
    3.9254    0.6482    0.7931 C   0  0  0  0  0  0
    4.2171   -0.7838    0.3386 C   0  0  2  0  0  0
    4.1567   -3.1204    1.0671 C   0  0  0  0  0  0
    3.1459   -3.4389   -0.0300 C   0  0  0  0  0  0
    3.5475   -2.6912   -1.2874 C   0  0  0  0  0  0
    3.5902   -1.1717   -1.0449 C   0  0  1  0  0  0
    2.2788   -0.5417   -1.3801 C   0  0  0  0  0  0
    1.0744   -0.6846   -0.8692 N   0  0  0  0  0  0
    0.3235    0.1908   -1.6364 C   0  0  0  0  0  0
   -1.0834    0.4518   -1.3961 C   0  0  0  0  0  0
   -1.9708   -0.6120   -1.2040 C   0  0  0  0  0  0
   -3.3196   -0.3659   -0.9275 C   0  0  0  0  0  0
   -3.8091    0.9405   -0.7977 C   0  0  0  0  0  0
   -5.1029    1.2413   -0.3388 N   0  0  0  0  0  0
   -6.2162    0.4399   -0.8894 C   0  0  0  0  0  0
   -7.0571    0.0382    0.3244 C   0  0  0  0  0  0
   -6.0421   -0.0231    1.4499 C   0  0  0  0  0  0
   -5.1549    1.1733    1.1371 C   0  0  0  0  0  0
   -2.9192    2.0015   -1.0146 C   0  0  0  0  0  0
   -1.5723    1.7633   -1.3164 C   0  0  0  0  0  0
    1.0136    0.7856   -2.6220 N   0  0  0  0  0  0
    2.3051    0.3075   -2.4486 O   0  0  0  0  0  0
    4.8760    1.6661    0.6055 C   0  0  0  0  0  0
    4.5975    2.9834    0.9987 C   0  0  0  0  0  0
    3.1506    4.3173    1.8898 H   0  0  0  0  0  0
    1.4665    2.5308    2.2481 H   0  0  0  0  0  0
    1.9375    0.2327    1.5597 H   0  0  0  0  0  0
    5.3053   -0.8288    0.1728 H   0  0  0  0  0  0
    3.9912   -3.7684    1.9383 H   0  0  0  0  0  0
    5.1820   -3.3161    0.7159 H   0  0  0  0  0  0
    3.1338   -4.5166   -0.2229 H   0  0  0  0  0  0
    2.1320   -3.1510    0.2769 H   0  0  0  0  0  0
    4.5577   -3.0202   -1.5687 H   0  0  0  0  0  0
    2.8883   -2.9503   -2.1256 H   0  0  0  0  0  0
    4.2863   -0.7760   -1.8009 H   0  0  0  0  0  0
   -1.6193   -1.6371   -1.2643 H   0  0  0  0  0  0
   -3.9715   -1.2177   -0.7481 H   0  0  0  0  0  0
   -6.8078    1.0543   -1.5789 H   0  0  0  0  0  0
   -5.9001   -0.4555   -1.4366 H   0  0  0  0  0  0
   -7.5886   -0.9083    0.1736 H   0  0  0  0  0  0
   -7.7974    0.8191    0.5397 H   0  0  0  0  0  0
   -5.4698   -0.9582    1.3960 H   0  0  0  0  0  0
   -6.5030    0.0449    2.4386 H   0  0  0  0  0  0
   -4.1780    1.0851    1.6287 H   0  0  0  0  0  0
   -5.6266    2.0900    1.5046 H   0  0  0  0  0  0
   -3.2738    3.0251   -0.9187 H   0  0  0  0  0  0
   -0.9019    2.6116   -1.4439 H   0  0  0  0  0  0
    5.8420    1.4511    0.1577 H   0  0  0  0  0  0
    5.3386    3.7654    0.8579 H   0  0  0  0  0  0
    4.0215   -1.7172    1.4871 N   0  3  0  0  0  0
    4.7258   -1.5145    2.2062 H   0  0  0  0  0  0
    3.0827   -1.5745    1.8776 H   0  0  0  0  0  0
  1  2  2  0  0  0
  1 27  1  0  0  0
  1 28  1  0  0  0
  2  3  1  0  0  0
  2 29  1  0  0  0
  3  4  2  0  0  0
  3 30  1  0  0  0
  4  5  1  0  0  0
  4 26  1  0  0  0
  5  9  1  0  0  0
  5 31  1  0  0  0
  5 53  1  0  0  0
  6  7  1  0  0  0
  6 32  1  0  0  0
  6 33  1  0  0  0
  6 53  1  0  0  0
  7  8  1  0  0  0
  7 34  1  0  0  0
  7 35  1  0  0  0
  8  9  1  0  0  0
  8 36  1  0  0  0
  8 37  1  0  0  0
  9 10  1  0  0  0
  9 38  1  0  0  0
 10 11  2  0  0  0
 10 25  1  0  0  0
 11 12  1  0  0  0
 12 13  1  0  0  0
 12 24  2  0  0  0
 13 14  2  0  0  0
 13 23  1  0  0  0
 14 15  1  0  0  0
 14 39  1  0  0  0
 15 16  2  0  0  0
 15 40  1  0  0  0
 16 17  1  0  0  0
 16 22  1  0  0  0
 17 18  1  0  0  0
 17 21  1  0  0  0
 18 19  1  0  0  0
 18 41  1  0  0  0
 18 42  1  0  0  0
 19 20  1  0  0  0
 19 43  1  0  0  0
 19 44  1  0  0  0
 20 21  1  0  0  0
 20 45  1  0  0  0
 20 46  1  0  0  0
 21 47  1  0  0  0
 21 48  1  0  0  0
 22 23  2  0  0  0
 22 49  1  0  0  0
 23 50  1  0  0  0
 24 25  1  0  0  0
 26 27  2  0  0  0
 26 51  1  0  0  0
 27 52  1  0  0  0
 53 54  1  0  0  0
 53 55  1  0  0  0
M  CHG  1  53   1
M  END
> <energy>
81.1547

> <i_ionizer_Ion_state_n>
1

> <i_ionizer_Tot_Q>
1

> <s_ionizer_Ion_centers>
53

> <s_ionizer_Ion_types>
N5

> <s_ionizer_Ion_ctrs_in>
6

> <r_ionizer_Ionization_penalty>
0.00311085

> <r_ionizer_Ionization_penalty_charging>
0.000148807

> <r_ionizer_Ionization_penalty_neutral>
0.00296205

$$$$
ZINC001211849601
                    3D
 Schrodinger Suite 2019-4.
 55 59  0  0  1  0            999 V2000
   -3.5944    3.0498    1.9757 C   0  0  0  0  0  0
   -4.0941    1.8604    2.5004 C   0  0  0  0  0  0
   -3.9888    0.6708    1.7736 C   0  0  0  0  0  0
   -3.3612    0.6456    0.5193 C   0  0  0  0  0  0
   -3.1812   -0.6426   -0.2854 C   0  0  1  0  0  0
   -4.2356   -1.9160   -2.0950 C   0  0  0  0  0  0
   -4.0453   -3.2120   -1.3190 C   0  0  0  0  0  0
   -2.8256   -3.1367   -0.4187 C   0  0  0  0  0  0
   -2.9229   -1.9430    0.5561 C   0  0  1  0  0  0
   -1.6381   -1.8870    1.3282 C   0  0  0  0  0  0
   -0.7549   -0.9229    1.3625 N   0  0  0  0  0  0
    0.3764   -1.5525    1.8266 C   0  0  0  0  0  0
    1.6490   -0.8765    1.6258 C   0  0  0  0  0  0
    2.7837   -1.5465    1.1557 C   0  0  0  0  0  0
    3.8624   -0.8218    0.6098 C   0  0  0  0  0  0
    3.8177    0.5752    0.5127 C   0  0  0  0  0  0
    4.7200    1.3433   -0.2336 N   0  0  0  0  0  0
    4.0672    2.2187   -1.2366 C   0  0  0  0  0  0
    5.1909    2.6071   -2.1842 C   0  0  0  0  0  0
    6.0154    1.3287   -2.2406 C   0  0  0  0  0  0
    5.9871    0.8334   -0.7891 C   0  0  0  0  0  0
    2.7426    1.2256    1.1435 C   0  0  0  0  0  0
    1.6760    0.5126    1.6911 C   0  0  0  0  0  0
    0.1870   -2.8294    2.1816 N   0  0  0  0  0  0
   -1.1690   -3.0470    1.8870 O   0  0  0  0  0  0
   -2.9030    1.8620   -0.0126 C   0  0  0  0  0  0
   -3.0217    3.0575    0.7070 C   0  0  0  0  0  0
   -3.6455    3.9685    2.5541 H   0  0  0  0  0  0
   -4.5651    1.8577    3.4779 H   0  0  0  0  0  0
   -4.4064   -0.2332    2.2116 H   0  0  0  0  0  0
   -2.2882   -0.4898   -0.9115 H   0  0  0  0  0  0
   -5.1470   -1.9909   -2.6955 H   0  0  0  0  0  0
   -3.4123   -1.7650   -2.8065 H   0  0  0  0  0  0
   -4.9326   -3.4130   -0.7018 H   0  0  0  0  0  0
   -3.9352   -4.0507   -2.0137 H   0  0  0  0  0  0
   -1.9228   -3.0391   -1.0388 H   0  0  0  0  0  0
   -2.7163   -4.0799    0.1280 H   0  0  0  0  0  0
   -3.7486   -2.1333    1.2489 H   0  0  0  0  0  0
    2.7988   -2.6293    1.1062 H   0  0  0  0  0  0
    4.6956   -1.3872    0.2020 H   0  0  0  0  0  0
    3.5951    3.1036   -0.7928 H   0  0  0  0  0  0
    3.3076    1.6544   -1.7880 H   0  0  0  0  0  0
    5.7867    3.4054   -1.7323 H   0  0  0  0  0  0
    4.8154    2.9508   -3.1555 H   0  0  0  0  0  0
    5.5290    0.6011   -2.9004 H   0  0  0  0  0  0
    7.0367    1.4963   -2.5981 H   0  0  0  0  0  0
    6.1215   -0.2521   -0.7656 H   0  0  0  0  0  0
    6.8159    1.2831   -0.2299 H   0  0  0  0  0  0
    2.6987    2.3133    1.1663 H   0  0  0  0  0  0
    0.8238    1.0588    2.0944 H   0  0  0  0  0  0
   -2.4467    1.8882   -0.9996 H   0  0  0  0  0  0
   -2.6690    3.9888    0.2767 H   0  0  0  0  0  0
   -4.3519   -0.7461   -1.2106 N   0  3  0  0  0  0
   -5.2107   -0.8320   -0.6544 H   0  0  0  0  0  0
   -4.3998    0.1034   -1.7852 H   0  0  0  0  0  0
  1  2  2  0  0  0
  1 27  1  0  0  0
  1 28  1  0  0  0
  2  3  1  0  0  0
  2 29  1  0  0  0
  3  4  2  0  0  0
  3 30  1  0  0  0
  4  5  1  0  0  0
  4 26  1  0  0  0
  5  9  1  0  0  0
  5 31  1  0  0  0
  5 53  1  0  0  0
  6  7  1  0  0  0
  6 32  1  0  0  0
  6 33  1  0  0  0
  6 53  1  0  0  0
  7  8  1  0  0  0
  7 34  1  0  0  0
  7 35  1  0  0  0
  8  9  1  0  0  0
  8 36  1  0  0  0
  8 37  1  0  0  0
  9 10  1  0  0  0
  9 38  1  0  0  0
 10 11  2  0  0  0
 10 25  1  0  0  0
 11 12  1  0  0  0
 12 13  1  0  0  0
 12 24  2  0  0  0
 13 14  2  0  0  0
 13 23  1  0  0  0
 14 15  1  0  0  0
 14 39  1  0  0  0
 15 16  2  0  0  0
 15 40  1  0  0  0
 16 17  1  0  0  0
 16 22  1  0  0  0
 17 18  1  0  0  0
 17 21  1  0  0  0
 18 19  1  0  0  0
 18 41  1  0  0  0
 18 42  1  0  0  0
 19 20  1  0  0  0
 19 43  1  0  0  0
 19 44  1  0  0  0
 20 21  1  0  0  0
 20 45  1  0  0  0
 20 46  1  0  0  0
 21 47  1  0  0  0
 21 48  1  0  0  0
 22 23  2  0  0  0
 22 49  1  0  0  0
 23 50  1  0  0  0
 24 25  1  0  0  0
 26 27  2  0  0  0
 26 51  1  0  0  0
 27 52  1  0  0  0
 53 54  1  0  0  0
 53 55  1  0  0  0
M  CHG  1  53   1
M  END
> <energy>
80.9231

> <i_ionizer_Ion_state_n>
1

> <i_ionizer_Tot_Q>
1

> <s_ionizer_Ion_centers>
53

> <s_ionizer_Ion_types>
N5

> <s_ionizer_Ion_ctrs_in>
6

> <r_ionizer_Ionization_penalty>
0.00311085

> <r_ionizer_Ionization_penalty_charging>
0.000148807

> <r_ionizer_Ionization_penalty_neutral>
0.00296205

$$$$
ZINC001211849602
                    3D
 Schrodinger Suite 2019-4.
 55 59  0  0  1  0            999 V2000
    2.9374    3.6224    3.1622 C   0  0  0  0  0  0
    4.1661    3.6148    2.5078 C   0  0  0  0  0  0
    4.2845    3.0549    1.2353 C   0  0  0  0  0  0
    3.1693    2.4972    0.5895 C   0  0  0  0  0  0
    3.3297    1.9064   -0.8118 C   0  0  1  0  0  0
    2.3598    1.6994   -3.0308 C   0  0  0  0  0  0
    2.8760    0.2645   -3.1658 C   0  0  0  0  0  0
    4.0920    0.0012   -2.2651 C   0  0  0  0  0  0
    3.8425    0.4352   -0.8076 C   0  0  2  0  0  0
    2.8604   -0.4909   -0.1613 C   0  0  0  0  0  0
    1.5575   -0.3792   -0.1059 N   0  0  0  0  0  0
    1.1768   -1.5475    0.4971 C   0  0  0  0  0  0
   -0.2330   -1.8388    0.6524 C   0  0  0  0  0  0
   -0.8590   -2.7307   -0.2184 C   0  0  0  0  0  0
   -2.2531   -2.8442   -0.2236 C   0  0  0  0  0  0
   -3.0655   -2.0770    0.6327 C   0  0  0  0  0  0
   -4.4475   -2.1457    0.5540 N   0  0  0  0  0  0
   -5.3330   -1.3725    1.4289 C   0  0  0  0  0  0
   -6.7094   -1.5807    0.8112 C   0  0  0  0  0  0
   -6.4033   -1.6013   -0.6736 C   0  0  0  0  0  0
   -5.0817   -2.3636   -0.7541 C   0  0  0  0  0  0
   -2.4023   -1.2572    1.5616 C   0  0  0  0  0  0
   -1.0070   -1.1157    1.5601 C   0  0  0  0  0  0
    2.1925   -2.3723    0.7975 N   0  0  0  0  0  0
    3.3250   -1.6598    0.3705 O   0  0  0  0  0  0
    1.9417    2.5041    1.2722 C   0  0  0  0  0  0
    1.8235    3.0617    2.5482 C   0  0  0  0  0  0
    2.8416    4.0752    4.1462 H   0  0  0  0  0  0
    5.0325    4.0544    2.9905 H   0  0  0  0  0  0
    5.2555    3.0713    0.7434 H   0  0  0  0  0  0
    4.1025    2.5260   -1.2936 H   0  0  0  0  0  0
    1.4199    1.8020   -3.5896 H   0  0  0  0  0  0
    3.0737    2.4089   -3.4746 H   0  0  0  0  0  0
    2.0712   -0.4397   -2.9221 H   0  0  0  0  0  0
    3.1473    0.0729   -4.2116 H   0  0  0  0  0  0
    4.9491    0.5571   -2.6673 H   0  0  0  0  0  0
    4.3631   -1.0610   -2.3169 H   0  0  0  0  0  0
    4.7949    0.3781   -0.2649 H   0  0  0  0  0  0
   -0.2757   -3.2988   -0.9401 H   0  0  0  0  0  0
   -2.7063   -3.5417   -0.9236 H   0  0  0  0  0  0
   -5.3090   -1.7319    2.4637 H   0  0  0  0  0  0
   -5.0839   -0.3057    1.4111 H   0  0  0  0  0  0
   -7.1207   -2.5462    1.1244 H   0  0  0  0  0  0
   -7.4231   -0.7969    1.0786 H   0  0  0  0  0  0
   -7.1881   -2.0786   -1.2653 H   0  0  0  0  0  0
   -6.2631   -0.5773   -1.0421 H   0  0  0  0  0  0
   -5.2659   -3.4340   -0.8957 H   0  0  0  0  0  0
   -4.4874   -1.9860   -1.5938 H   0  0  0  0  0  0
   -2.9648   -0.6637    2.2747 H   0  0  0  0  0  0
   -0.5363   -0.4112    2.2442 H   0  0  0  0  0  0
    1.0530    2.0836    0.8105 H   0  0  0  0  0  0
    0.8599    3.0600    3.0504 H   0  0  0  0  0  0
    2.1000    2.0784   -1.6343 N   0  3  0  0  0  0
    1.3538    1.4834   -1.2556 H   0  0  0  0  0  0
    1.8047    3.0612   -1.5999 H   0  0  0  0  0  0
  1  2  2  0  0  0
  1 27  1  0  0  0
  1 28  1  0  0  0
  2  3  1  0  0  0
  2 29  1  0  0  0
  3  4  2  0  0  0
  3 30  1  0  0  0
  4  5  1  0  0  0
  4 26  1  0  0  0
  5  9  1  0  0  0
  5 31  1  0  0  0
  5 53  1  0  0  0
  6  7  1  0  0  0
  6 32  1  0  0  0
  6 33  1  0  0  0
  6 53  1  0  0  0
  7  8  1  0  0  0
  7 34  1  0  0  0
  7 35  1  0  0  0
  8  9  1  0  0  0
  8 36  1  0  0  0
  8 37  1  0  0  0
  9 10  1  0  0  0
  9 38  1  0  0  0
 10 11  2  0  0  0
 10 25  1  0  0  0
 11 12  1  0  0  0
 12 13  1  0  0  0
 12 24  2  0  0  0
 13 14  2  0  0  0
 13 23  1  0  0  0
 14 15  1  0  0  0
 14 39  1  0  0  0
 15 16  2  0  0  0
 15 40  1  0  0  0
 16 17  1  0  0  0
 16 22  1  0  0  0
 17 18  1  0  0  0
 17 21  1  0  0  0
 18 19  1  0  0  0
 18 41  1  0  0  0
 18 42  1  0  0  0
 19 20  1  0  0  0
 19 43  1  0  0  0
 19 44  1  0  0  0
 20 21  1  0  0  0
 20 45  1  0  0  0
 20 46  1  0  0  0
 21 47  1  0  0  0
 21 48  1  0  0  0
 22 23  2  0  0  0
 22 49  1  0  0  0
 23 50  1  0  0  0
 24 25  1  0  0  0
 26 27  2  0  0  0
 26 51  1  0  0  0
 27 52  1  0  0  0
 53 54  1  0  0  0
 53 55  1  0  0  0
M  CHG  1  53   1
M  END
> <energy>
72.9643

> <i_ionizer_Ion_state_n>
1

> <i_ionizer_Tot_Q>
1

> <s_ionizer_Ion_centers>
53

> <s_ionizer_Ion_types>
N5

> <s_ionizer_Ion_ctrs_in>
6

> <r_ionizer_Ionization_penalty>
0.00311085

> <r_ionizer_Ionization_penalty_charging>
0.000148807

> <r_ionizer_Ionization_penalty_neutral>
0.00296205

$$$$
ZINC001211849613
                    3D
 Schrodinger Suite 2019-4.
 47 50  0  0  1  0            999 V2000
   -2.4860   -0.1378    2.3825 C   0  0  0  0  0  0
   -2.9728   -1.1497    1.5002 O   0  0  0  0  0  0
   -3.6157   -0.5825    0.4293 C   0  0  0  0  0  0
   -4.9501   -0.1950    0.6079 C   0  0  0  0  0  0
   -5.6754    0.3273   -0.4607 C   0  0  0  0  0  0
   -5.0680    0.4466   -1.7081 C   0  0  0  0  0  0
   -5.9641    1.0850   -3.0319 Cl  0  0  0  0  0  0
   -3.7448    0.0433   -1.8973 C   0  0  0  0  0  0
   -2.9961   -0.4852   -0.8288 C   0  0  0  0  0  0
   -1.6141   -0.9014   -1.0616 C   0  0  0  0  0  0
   -1.1350   -1.2222   -2.2784 N   0  0  0  0  0  0
    0.2086   -1.4996   -2.0497 O   0  0  0  0  0  0
    0.4214   -1.3126   -0.7174 C   0  0  0  0  0  0
    1.8124   -1.5150   -0.2265 C   0  0  2  0  0  0
    1.8580   -1.8344    1.2734 C   0  0  0  0  0  0
    3.2914   -2.0030    1.7878 C   0  0  0  0  0  0
    4.3576   -1.5761    0.7803 C   0  0  0  0  0  0
    2.7694   -0.3426   -0.6096 C   0  0  1  0  0  0
    2.1417    1.0486   -0.6566 C   0  0  0  0  0  0
    2.1080    1.7553   -1.8712 C   0  0  0  0  0  0
    1.5260    3.0224   -1.9480 C   0  0  0  0  0  0
    0.9740    3.6061   -0.8120 C   0  0  0  0  0  0
    1.0056    2.9242    0.4017 C   0  0  0  0  0  0
    1.5874    1.6564    0.4814 C   0  0  0  0  0  0
   -0.6621   -0.9589   -0.0666 N   0  0  0  0  0  0
   -3.3069    0.2782    2.9756 H   0  0  0  0  0  0
   -1.7746   -0.6072    3.0689 H   0  0  0  0  0  0
   -1.9630    0.6626    1.8462 H   0  0  0  0  0  0
   -5.4288   -0.3173    1.5765 H   0  0  0  0  0  0
   -6.7107    0.6265   -0.3189 H   0  0  0  0  0  0
   -3.2960    0.1432   -2.8843 H   0  0  0  0  0  0
    2.1920   -2.4170   -0.7316 H   0  0  0  0  0  0
    1.2890   -2.7505    1.4818 H   0  0  0  0  0  0
    1.3617   -1.0502    1.8575 H   0  0  0  0  0  0
    3.4641   -3.0506    2.0608 H   0  0  0  0  0  0
    3.4037   -1.4249    2.7140 H   0  0  0  0  0  0
    5.3236   -1.4964    1.2928 H   0  0  0  0  0  0
    4.4871   -2.3371    0.0017 H   0  0  0  0  0  0
    3.0899   -0.5690   -1.6373 H   0  0  0  0  0  0
    2.5344    1.3199   -2.7727 H   0  0  0  0  0  0
    1.5047    3.5507   -2.8976 H   0  0  0  0  0  0
    0.5240    4.5934   -0.8725 H   0  0  0  0  0  0
    0.5732    3.3794    1.2889 H   0  0  0  0  0  0
    1.5948    1.1514    1.4426 H   0  0  0  0  0  0
    4.0388   -0.2750    0.1773 N   0  3  0  0  0  0
    3.9345    0.4233    0.9228 H   0  0  0  0  0  0
    4.8058    0.0022   -0.4465 H   0  0  0  0  0  0
  1  2  1  0  0  0
  1 26  1  0  0  0
  1 27  1  0  0  0
  1 28  1  0  0  0
  2  3  1  0  0  0
  3  4  2  0  0  0
  3  9  1  0  0  0
  4  5  1  0  0  0
  4 29  1  0  0  0
  5  6  2  0  0  0
  5 30  1  0  0  0
  6  7  1  0  0  0
  6  8  1  0  0  0
  8  9  2  0  0  0
  8 31  1  0  0  0
  9 10  1  0  0  0
 10 11  2  0  0  0
 10 25  1  0  0  0
 11 12  1  0  0  0
 12 13  1  0  0  0
 13 14  1  0  0  0
 13 25  2  0  0  0
 14 15  1  0  0  0
 14 18  1  0  0  0
 14 32  1  0  0  0
 15 16  1  0  0  0
 15 33  1  0  0  0
 15 34  1  0  0  0
 16 17  1  0  0  0
 16 35  1  0  0  0
 16 36  1  0  0  0
 17 37  1  0  0  0
 17 38  1  0  0  0
 17 45  1  0  0  0
 18 19  1  0  0  0
 18 39  1  0  0  0
 18 45  1  0  0  0
 19 20  2  0  0  0
 19 24  1  0  0  0
 20 21  1  0  0  0
 20 40  1  0  0  0
 21 22  2  0  0  0
 21 41  1  0  0  0
 22 23  1  0  0  0
 22 42  1  0  0  0
 23 24  2  0  0  0
 23 43  1  0  0  0
 24 44  1  0  0  0
 45 46  1  0  0  0
 45 47  1  0  0  0
M  CHG  1  45   1
M  END
> <energy>
74.4423

> <i_ionizer_Ion_state_n>
1

> <i_ionizer_Tot_Q>
1

> <s_ionizer_Ion_centers>
45

> <s_ionizer_Ion_types>
N5

> <s_ionizer_Ion_ctrs_in>
18

> <r_ionizer_Ionization_penalty>
0.000148807

> <r_ionizer_Ionization_penalty_charging>
0.000148807

> <r_ionizer_Ionization_penalty_neutral>
0

$$$$
ZINC001211849616
                    3D
 Schrodinger Suite 2019-4.
 47 50  0  0  1  0            999 V2000
   -4.7308    0.9447   -2.4306 C   0  0  0  0  0  0
   -3.5075    1.6101   -2.1121 O   0  0  0  0  0  0
   -3.5435    2.0877   -0.8278 C   0  0  0  0  0  0
   -4.2625    3.2565   -0.5638 C   0  0  0  0  0  0
   -4.2329    3.8206    0.7119 C   0  0  0  0  0  0
   -3.4901    3.2153    1.7198 C   0  0  0  0  0  0
   -3.4368    3.9272    3.2838 Cl  0  0  0  0  0  0
   -2.7607    2.0554    1.4627 C   0  0  0  0  0  0
   -2.7759    1.4915    0.1795 C   0  0  0  0  0  0
   -1.9067    0.3708   -0.1005 C   0  0  0  0  0  0
   -2.3220   -0.8811   -0.3528 N   0  0  0  0  0  0
   -1.1320   -1.5687   -0.6145 O   0  0  0  0  0  0
   -0.1255   -0.6557   -0.4877 C   0  0  0  0  0  0
    1.2426   -1.0685   -0.9180 C   0  0  1  0  0  0
    1.4968   -0.4576   -2.3069 C   0  0  0  0  0  0
    2.9448   -0.6398   -2.7386 C   0  0  0  0  0  0
    3.8689   -0.0075   -1.7122 C   0  0  0  0  0  0
    2.3188   -0.6021    0.1017 C   0  0  1  0  0  0
    2.2852   -1.4605    1.3639 C   0  0  0  0  0  0
    2.7608   -2.7837    1.3406 C   0  0  0  0  0  0
    2.7855   -3.5505    2.5047 C   0  0  0  0  0  0
    2.3287   -3.0041    3.7034 C   0  0  0  0  0  0
    1.8427   -1.6954    3.7357 C   0  0  0  0  0  0
    1.8197   -0.9273    2.5720 C   0  0  0  0  0  0
   -0.5417    0.5334   -0.1187 N   0  0  0  0  0  0
   -4.9754    0.1675   -1.6948 H   0  0  0  0  0  0
   -4.6085    0.4641   -3.4077 H   0  0  0  0  0  0
   -5.5544    1.6635   -2.5118 H   0  0  0  0  0  0
   -4.8095    3.7517   -1.3617 H   0  0  0  0  0  0
   -4.7864    4.7327    0.9077 H   0  0  0  0  0  0
   -2.1574    1.6027    2.2457 H   0  0  0  0  0  0
    1.2704   -2.1631   -1.0185 H   0  0  0  0  0  0
    0.8266   -0.9009   -3.0570 H   0  0  0  0  0  0
    1.2725    0.6207   -2.2921 H   0  0  0  0  0  0
    3.1665   -1.7076   -2.8498 H   0  0  0  0  0  0
    3.0969   -0.1711   -3.7148 H   0  0  0  0  0  0
    4.9065   -0.1334   -2.0383 H   0  0  0  0  0  0
    3.6870    1.0713   -1.6321 H   0  0  0  0  0  0
    2.1145    0.4387    0.3933 H   0  0  0  0  0  0
    3.1442   -3.2101    0.4160 H   0  0  0  0  0  0
    3.1708   -4.5651    2.4752 H   0  0  0  0  0  0
    2.3488   -3.5991    4.6108 H   0  0  0  0  0  0
    1.4918   -1.2701    4.6724 H   0  0  0  0  0  0
    1.4464    0.0929    2.6169 H   0  0  0  0  0  0
    3.7248   -0.6720   -0.4079 N   0  3  0  0  0  0
    3.9937   -1.6580   -0.5063 H   0  0  0  0  0  0
    4.3464   -0.2136    0.2686 H   0  0  0  0  0  0
  1  2  1  0  0  0
  1 26  1  0  0  0
  1 27  1  0  0  0
  1 28  1  0  0  0
  2  3  1  0  0  0
  3  4  2  0  0  0
  3  9  1  0  0  0
  4  5  1  0  0  0
  4 29  1  0  0  0
  5  6  2  0  0  0
  5 30  1  0  0  0
  6  7  1  0  0  0
  6  8  1  0  0  0
  8  9  2  0  0  0
  8 31  1  0  0  0
  9 10  1  0  0  0
 10 11  2  0  0  0
 10 25  1  0  0  0
 11 12  1  0  0  0
 12 13  1  0  0  0
 13 14  1  0  0  0
 13 25  2  0  0  0
 14 15  1  0  0  0
 14 18  1  0  0  0
 14 32  1  0  0  0
 15 16  1  0  0  0
 15 33  1  0  0  0
 15 34  1  0  0  0
 16 17  1  0  0  0
 16 35  1  0  0  0
 16 36  1  0  0  0
 17 37  1  0  0  0
 17 38  1  0  0  0
 17 45  1  0  0  0
 18 19  1  0  0  0
 18 39  1  0  0  0
 18 45  1  0  0  0
 19 20  2  0  0  0
 19 24  1  0  0  0
 20 21  1  0  0  0
 20 40  1  0  0  0
 21 22  2  0  0  0
 21 41  1  0  0  0
 22 23  1  0  0  0
 22 42  1  0  0  0
 23 24  2  0  0  0
 23 43  1  0  0  0
 24 44  1  0  0  0
 45 46  1  0  0  0
 45 47  1  0  0  0
M  CHG  1  45   1
M  END
> <energy>
66.5113

> <i_ionizer_Ion_state_n>
1

> <i_ionizer_Tot_Q>
1

> <s_ionizer_Ion_centers>
45

> <s_ionizer_Ion_types>
N5

> <s_ionizer_Ion_ctrs_in>
18

> <r_ionizer_Ionization_penalty>
0.000148807

> <r_ionizer_Ionization_penalty_charging>
0.000148807

> <r_ionizer_Ionization_penalty_neutral>
0

$$$$
ZINC001211849617
                    3D
 Schrodinger Suite 2019-4.
 47 50  0  0  1  0            999 V2000
   -3.8736    2.4431   -1.5180 C   0  0  0  0  0  0
   -4.2509    1.0684   -1.6097 O   0  0  0  0  0  0
   -4.2484    0.4857   -0.3674 C   0  0  0  0  0  0
   -5.4622    0.5167    0.3328 C   0  0  0  0  0  0
   -5.5670   -0.0921    1.5819 C   0  0  0  0  0  0
   -4.4605   -0.7418    2.1194 C   0  0  0  0  0  0
   -4.5855   -1.5073    3.6547 Cl  0  0  0  0  0  0
   -3.2533   -0.7913    1.4190 C   0  0  0  0  0  0
   -3.1278   -0.1901    0.1515 C   0  0  0  0  0  0
   -1.8505   -0.3103   -0.5566 C   0  0  0  0  0  0
   -1.6271    0.0749   -1.8242 N   0  0  0  0  0  0
   -0.2915   -0.2333   -2.0482 O   0  0  0  0  0  0
    0.1775   -0.7839   -0.8950 C   0  0  0  0  0  0
    1.6003   -1.2365   -0.8958 C   0  0  2  0  0  0
    1.6377   -2.7752   -0.9025 C   0  0  0  0  0  0
    3.0512   -3.3087   -0.6899 C   0  0  0  0  0  0
    3.6839   -2.7037    0.5575 C   0  0  0  0  0  0
    2.3664   -0.6676    0.3281 C   0  0  2  0  0  0
    2.4909    0.8533    0.2734 C   0  0  0  0  0  0
    3.3220    1.4873   -0.6657 C   0  0  0  0  0  0
    3.4351    2.8789   -0.6929 C   0  0  0  0  0  0
    2.7184    3.6556    0.2146 C   0  0  0  0  0  0
    1.8880    3.0420    1.1493 C   0  0  0  0  0  0
    1.7716    1.6497    1.1785 C   0  0  0  0  0  0
   -0.7339   -0.8606    0.0493 N   0  0  0  0  0  0
   -4.6500    3.0216   -1.0076 H   0  0  0  0  0  0
   -2.9115    2.5722   -1.0100 H   0  0  0  0  0  0
   -3.7747    2.8318   -2.5358 H   0  0  0  0  0  0
   -6.3280    1.0067   -0.1060 H   0  0  0  0  0  0
   -6.5101   -0.0634    2.1207 H   0  0  0  0  0  0
   -2.4104   -1.3218    1.8580 H   0  0  0  0  0  0
    2.0811   -0.8897   -1.8214 H   0  0  0  0  0  0
    0.9857   -3.1739   -0.1124 H   0  0  0  0  0  0
    1.2407   -3.1556   -1.8531 H   0  0  0  0  0  0
    3.0213   -4.4002   -0.5958 H   0  0  0  0  0  0
    3.6688   -3.0796   -1.5683 H   0  0  0  0  0  0
    3.1394   -3.0151    1.4571 H   0  0  0  0  0  0
    4.7089   -3.0781    0.6573 H   0  0  0  0  0  0
    1.8159   -0.9279    1.2438 H   0  0  0  0  0  0
    3.8997    0.8948   -1.3732 H   0  0  0  0  0  0
    4.0864    3.3561   -1.4207 H   0  0  0  0  0  0
    2.8095    4.7388    0.1949 H   0  0  0  0  0  0
    1.3285    3.6470    1.8581 H   0  0  0  0  0  0
    1.1138    1.1916    1.9134 H   0  0  0  0  0  0
    3.7342   -1.2384    0.4604 N   0  3  0  0  0  0
    4.1759   -0.8604    1.3068 H   0  0  0  0  0  0
    4.2895   -0.9749   -0.3622 H   0  0  0  0  0  0
  1  2  1  0  0  0
  1 26  1  0  0  0
  1 27  1  0  0  0
  1 28  1  0  0  0
  2  3  1  0  0  0
  3  4  2  0  0  0
  3  9  1  0  0  0
  4  5  1  0  0  0
  4 29  1  0  0  0
  5  6  2  0  0  0
  5 30  1  0  0  0
  6  7  1  0  0  0
  6  8  1  0  0  0
  8  9  2  0  0  0
  8 31  1  0  0  0
  9 10  1  0  0  0
 10 11  2  0  0  0
 10 25  1  0  0  0
 11 12  1  0  0  0
 12 13  1  0  0  0
 13 14  1  0  0  0
 13 25  2  0  0  0
 14 15  1  0  0  0
 14 18  1  0  0  0
 14 32  1  0  0  0
 15 16  1  0  0  0
 15 33  1  0  0  0
 15 34  1  0  0  0
 16 17  1  0  0  0
 16 35  1  0  0  0
 16 36  1  0  0  0
 17 37  1  0  0  0
 17 38  1  0  0  0
 17 45  1  0  0  0
 18 19  1  0  0  0
 18 39  1  0  0  0
 18 45  1  0  0  0
 19 20  2  0  0  0
 19 24  1  0  0  0
 20 21  1  0  0  0
 20 40  1  0  0  0
 21 22  2  0  0  0
 21 41  1  0  0  0
 22 23  1  0  0  0
 22 42  1  0  0  0
 23 24  2  0  0  0
 23 43  1  0  0  0
 24 44  1  0  0  0
 45 46  1  0  0  0
 45 47  1  0  0  0
M  CHG  1  45   1
M  END
> <energy>
62.5713

> <i_ionizer_Ion_state_n>
1

> <i_ionizer_Tot_Q>
1

> <s_ionizer_Ion_centers>
45

> <s_ionizer_Ion_types>
N5

> <s_ionizer_Ion_ctrs_in>
18

> <r_ionizer_Ionization_penalty>
0.000148807

> <r_ionizer_Ionization_penalty_charging>
0.000148807

> <r_ionizer_Ionization_penalty_neutral>
0

$$$$
ZINC001211849618
                    3D
 Schrodinger Suite 2019-4.
 47 50  0  0  1  0            999 V2000
   -2.9294    1.6297    2.0449 C   0  0  0  0  0  0
   -3.3969    0.3568    1.5946 O   0  0  0  0  0  0
   -3.7322    0.4121    0.2655 C   0  0  0  0  0  0
   -4.9938    0.9260   -0.0623 C   0  0  0  0  0  0
   -5.4166    0.9485   -1.3901 C   0  0  0  0  0  0
   -4.5836    0.4423   -2.3839 C   0  0  0  0  0  0
   -5.1035    0.4678   -4.0242 Cl  0  0  0  0  0  0
   -3.3346   -0.0902   -2.0615 C   0  0  0  0  0  0
   -2.8899   -0.1194   -0.7266 C   0  0  0  0  0  0
   -1.5791   -0.6878   -0.4252 C   0  0  0  0  0  0
   -0.9629   -1.5802   -1.2215 N   0  0  0  0  0  0
    0.2535   -1.8089   -0.5891 O   0  0  0  0  0  0
    0.2687   -1.0265    0.5238 C   0  0  0  0  0  0
    1.4691   -1.0654    1.4115 C   0  0  1  0  0  0
    1.7992   -2.4847    1.8881 C   0  0  0  0  0  0
    2.5551   -3.3254    0.8549 C   0  0  0  0  0  0
    3.2512   -2.5062   -0.2292 C   0  0  0  0  0  0
    2.7369   -0.3587    0.8470 C   0  0  2  0  0  0
    2.4429    0.8643   -0.0162 C   0  0  0  0  0  0
    2.6023    0.8559   -1.4105 C   0  0  0  0  0  0
    2.2875    1.9819   -2.1750 C   0  0  0  0  0  0
    1.8059    3.1339   -1.5586 C   0  0  0  0  0  0
    1.6399    3.1622   -0.1765 C   0  0  0  0  0  0
    1.9553    2.0371    0.5888 C   0  0  0  0  0  0
   -0.8351   -0.3321    0.6783 N   0  0  0  0  0  0
   -2.4397    1.4829    3.0122 H   0  0  0  0  0  0
   -3.7698    2.3164    2.1903 H   0  0  0  0  0  0
   -2.1975    2.0683    1.3569 H   0  0  0  0  0  0
   -5.6511    1.2952    0.7206 H   0  0  0  0  0  0
   -6.3952    1.3497   -1.6402 H   0  0  0  0  0  0
   -2.7031   -0.4832   -2.8566 H   0  0  0  0  0  0
    1.1708   -0.5042    2.3106 H   0  0  0  0  0  0
    2.4352   -2.4013    2.7802 H   0  0  0  0  0  0
    0.8970   -3.0178    2.2126 H   0  0  0  0  0  0
    1.8612   -4.0255    0.3741 H   0  0  0  0  0  0
    3.2923   -3.9432    1.3832 H   0  0  0  0  0  0
    4.0774   -3.0953   -0.6444 H   0  0  0  0  0  0
    2.5803   -2.3246   -1.0743 H   0  0  0  0  0  0
    3.2483    0.0553    1.7305 H   0  0  0  0  0  0
    2.9750   -0.0306   -1.9179 H   0  0  0  0  0  0
    2.4183    1.9557   -3.2536 H   0  0  0  0  0  0
    1.5600    4.0076   -2.1557 H   0  0  0  0  0  0
    1.2620    4.0594    0.3062 H   0  0  0  0  0  0
    1.8095    2.0803    1.6657 H   0  0  0  0  0  0
    3.8043   -1.2369    0.2691 N   0  3  0  0  0  0
    4.4995   -1.4395    0.9970 H   0  0  0  0  0  0
    4.2573   -0.7429   -0.5088 H   0  0  0  0  0  0
  1  2  1  0  0  0
  1 26  1  0  0  0
  1 27  1  0  0  0
  1 28  1  0  0  0
  2  3  1  0  0  0
  3  4  2  0  0  0
  3  9  1  0  0  0
  4  5  1  0  0  0
  4 29  1  0  0  0
  5  6  2  0  0  0
  5 30  1  0  0  0
  6  7  1  0  0  0
  6  8  1  0  0  0
  8  9  2  0  0  0
  8 31  1  0  0  0
  9 10  1  0  0  0
 10 11  2  0  0  0
 10 25  1  0  0  0
 11 12  1  0  0  0
 12 13  1  0  0  0
 13 14  1  0  0  0
 13 25  2  0  0  0
 14 15  1  0  0  0
 14 18  1  0  0  0
 14 32  1  0  0  0
 15 16  1  0  0  0
 15 33  1  0  0  0
 15 34  1  0  0  0
 16 17  1  0  0  0
 16 35  1  0  0  0
 16 36  1  0  0  0
 17 37  1  0  0  0
 17 38  1  0  0  0
 17 45  1  0  0  0
 18 19  1  0  0  0
 18 39  1  0  0  0
 18 45  1  0  0  0
 19 20  2  0  0  0
 19 24  1  0  0  0
 20 21  1  0  0  0
 20 40  1  0  0  0
 21 22  2  0  0  0
 21 41  1  0  0  0
 22 23  1  0  0  0
 22 42  1  0  0  0
 23 24  2  0  0  0
 23 43  1  0  0  0
 24 44  1  0  0  0
 45 46  1  0  0  0
 45 47  1  0  0  0
M  CHG  1  45   1
M  END
> <energy>
79.3181

> <i_ionizer_Ion_state_n>
1

> <i_ionizer_Tot_Q>
1

> <s_ionizer_Ion_centers>
45

> <s_ionizer_Ion_types>
N5

> <s_ionizer_Ion_ctrs_in>
18

> <r_ionizer_Ionization_penalty>
0.000148807

> <r_ionizer_Ionization_penalty_charging>
0.000148807

> <r_ionizer_Ionization_penalty_neutral>
0

$$$$
ZINC001211849728
                    3D
 Schrodinger Suite 2019-4.
 44 46  0  0  1  0            999 V2000
    4.6666   -1.7275    1.3967 C   0  0  0  0  0  0
    3.6334   -1.2618    0.4808 N   0  0  0  0  0  0
    2.2543   -1.5175    0.8725 C   0  0  0  0  0  0
    4.0074   -0.4396   -0.5870 C   0  0  0  0  0  0
    5.1613   -0.1337   -0.8610 O   0  0  0  0  0  0
    2.9427    0.1486   -1.4121 C   0  0  0  0  0  0
    2.3409    1.3391   -0.9936 C   0  0  0  0  0  0
    1.2899    1.8863   -1.7377 C   0  0  0  0  0  0
    0.5745    3.0122   -1.2363 N   0  0  0  0  0  0
   -0.5399    2.7862   -0.3814 C   0  0  0  0  0  0
   -0.3648    2.2138    0.8814 C   0  0  0  0  0  0
   -1.4738    1.7681    1.5912 C   0  0  0  0  0  0
   -2.7229    1.8954    0.9981 C   0  0  0  0  0  0
   -3.8071    1.2709    1.5887 O   0  0  0  0  0  0
   -3.8461   -0.0874    1.3360 C   0  0  0  0  0  0
   -3.8416   -0.9534    2.4312 C   0  0  0  0  0  0
   -3.8613   -2.3320    2.2216 C   0  0  0  0  0  0
   -3.9077   -2.8282    0.9226 C   0  0  0  0  0  0
   -3.9326   -4.1523    0.7273 F   0  0  0  0  0  0
   -3.9390   -1.9746   -0.1741 C   0  0  0  0  0  0
   -3.9143   -0.5962    0.0327 C   0  0  0  0  0  0
   -2.9528    2.5275   -0.1739 N   0  0  0  0  0  0
   -1.8530    2.9572   -0.8313 C   0  0  0  0  0  0
    0.8471    1.2151   -2.8918 C   0  0  0  0  0  0
    1.4660    0.0323   -3.3115 C   0  0  0  0  0  0
    2.5193   -0.4952   -2.5708 C   0  0  0  0  0  0
    3.0842   -1.6437   -2.9740 F   0  0  0  0  0  0
    4.6034   -1.1504    2.3240 H   0  0  0  0  0  0
    4.4993   -2.7856    1.6222 H   0  0  0  0  0  0
    5.6696   -1.6116    0.9755 H   0  0  0  0  0  0
    1.5500   -1.3471    0.0554 H   0  0  0  0  0  0
    1.9950   -0.8495    1.6996 H   0  0  0  0  0  0
    2.1607   -2.5598    1.1910 H   0  0  0  0  0  0
    2.6884    1.8293   -0.0876 H   0  0  0  0  0  0
    0.2715    3.5791   -2.0288 H   0  0  0  0  0  0
    0.6307    2.0787    1.2984 H   0  0  0  0  0  0
   -1.3668    1.2793    2.5496 H   0  0  0  0  0  0
   -3.8068   -0.5537    3.4382 H   0  0  0  0  0  0
   -3.8494   -3.0210    3.0598 H   0  0  0  0  0  0
   -3.9876   -2.3875   -1.1797 H   0  0  0  0  0  0
   -3.9481    0.0783   -0.8186 H   0  0  0  0  0  0
   -2.0529    3.4144   -1.7957 H   0  0  0  0  0  0
   -0.0052    1.5928   -3.4530 H   0  0  0  0  0  0
    1.1172   -0.4954   -4.1946 H   0  0  0  0  0  0
  1  2  1  0  0  0
  1 28  1  0  0  0
  1 29  1  0  0  0
  1 30  1  0  0  0
  2  3  1  0  0  0
  2  4  1  0  0  0
  3 31  1  0  0  0
  3 32  1  0  0  0
  3 33  1  0  0  0
  4  5  2  0  0  0
  4  6  1  0  0  0
  6  7  2  0  0  0
  6 26  1  0  0  0
  7  8  1  0  0  0
  7 34  1  0  0  0
  8  9  1  0  0  0
  8 24  2  0  0  0
  9 10  1  0  0  0
  9 35  1  0  0  0
 10 11  2  0  0  0
 10 23  1  0  0  0
 11 12  1  0  0  0
 11 36  1  0  0  0
 12 13  2  0  0  0
 12 37  1  0  0  0
 13 14  1  0  0  0
 13 22  1  0  0  0
 14 15  1  0  0  0
 15 16  2  0  0  0
 15 21  1  0  0  0
 16 17  1  0  0  0
 16 38  1  0  0  0
 17 18  2  0  0  0
 17 39  1  0  0  0
 18 19  1  0  0  0
 18 20  1  0  0  0
 20 21  2  0  0  0
 20 40  1  0  0  0
 21 41  1  0  0  0
 22 23  2  0  0  0
 23 42  1  0  0  0
 24 25  1  0  0  0
 24 43  1  0  0  0
 25 26  2  0  0  0
 25 44  1  0  0  0
 26 27  1  0  0  0
M  END
> <energy>
70.6149

> <i_ionizer_Ion_state_n>
0

> <i_ionizer_Tot_Q>
0

> <s_ionizer_Ion_centers>


> <s_ionizer_Ion_types>


> <s_ionizer_Ion_ctrs_in>


> <r_ionizer_Ionization_penalty>
0.00741239

> <r_ionizer_Ionization_penalty_charging>
0

> <r_ionizer_Ionization_penalty_neutral>
0.00741239

$$$$
ZINC001211849729
                    3D
 Schrodinger Suite 2019-4.
 33 34  0  0  1  0            999 V2000
    1.8505   -1.3241    1.1879 C   0  0  0  0  0  0
    2.7406   -1.0009    0.0848 N   0  0  0  0  0  0
    3.7682   -1.9824   -0.2120 C   0  0  0  0  0  0
    2.7112    0.1850   -0.6452 C   0  0  0  0  0  0
    3.5595    0.4913   -1.4831 O   0  0  0  0  0  0
    1.5830    1.1167   -0.4522 C   0  0  0  0  0  0
    0.2743    0.7011   -0.7416 C   0  0  0  0  0  0
   -0.7904    1.6058   -0.6437 C   0  0  0  0  0  0
   -2.1312    1.2145   -0.9349 N   0  0  0  0  0  0
   -2.7244    0.0398   -0.3562 C   0  0  0  0  0  0
   -3.3261    0.1117    0.9167 C   0  0  0  0  0  0
   -3.4325    1.5944    1.7933 Cl  0  0  0  0  0  0
   -3.8624   -1.0383    1.4754 C   0  0  0  0  0  0
   -3.8349   -2.2460    0.8727 N   0  0  0  0  0  0
   -3.2538   -2.3001   -0.3518 C   0  0  0  0  0  0
   -3.2833   -3.8912   -1.0058 Cl  0  0  0  0  0  0
   -2.6885   -1.2067   -1.0081 C   0  0  0  0  0  0
   -2.0248   -1.3643   -2.5992 Cl  0  0  0  0  0  0
   -0.5136    2.9418   -0.3096 C   0  0  0  0  0  0
    0.7898    3.3458   -0.0017 C   0  0  0  0  0  0
    1.8331    2.4296   -0.0716 C   0  0  0  0  0  0
    3.0712    2.8366    0.2421 F   0  0  0  0  0  0
    2.4410   -1.7224    2.0178 H   0  0  0  0  0  0
    1.1454   -2.0853    0.8448 H   0  0  0  0  0  0
    1.3029   -0.4530    1.5509 H   0  0  0  0  0  0
    3.2875   -2.9488   -0.3888 H   0  0  0  0  0  0
    4.4387   -2.0586    0.6502 H   0  0  0  0  0  0
    4.3569   -1.7142   -1.0935 H   0  0  0  0  0  0
    0.1135   -0.3190   -1.0753 H   0  0  0  0  0  0
   -2.7385    2.0038   -0.7035 H   0  0  0  0  0  0
   -4.3494   -1.0195    2.4463 H   0  0  0  0  0  0
   -1.3125    3.6813   -0.2785 H   0  0  0  0  0  0
    0.9990    4.3755    0.2734 H   0  0  0  0  0  0
  1  2  1  0  0  0
  1 23  1  0  0  0
  1 24  1  0  0  0
  1 25  1  0  0  0
  2  3  1  0  0  0
  2  4  1  0  0  0
  3 26  1  0  0  0
  3 27  1  0  0  0
  3 28  1  0  0  0
  4  5  2  0  0  0
  4  6  1  0  0  0
  6  7  2  0  0  0
  6 21  1  0  0  0
  7  8  1  0  0  0
  7 29  1  0  0  0
  8  9  1  0  0  0
  8 19  2  0  0  0
  9 10  1  0  0  0
  9 30  1  0  0  0
 10 11  2  0  0  0
 10 17  1  0  0  0
 11 12  1  0  0  0
 11 13  1  0  0  0
 13 14  2  0  0  0
 13 31  1  0  0  0
 14 15  1  0  0  0
 15 16  1  0  0  0
 15 17  2  0  0  0
 17 18  1  0  0  0
 19 20  1  0  0  0
 19 32  1  0  0  0
 20 21  2  0  0  0
 20 33  1  0  0  0
 21 22  1  0  0  0
M  END
> <energy>
78.8415

> <i_ionizer_Ion_state_n>
0

> <i_ionizer_Tot_Q>
0

> <s_ionizer_Ion_centers>


> <s_ionizer_Ion_types>


> <s_ionizer_Ion_ctrs_in>


> <r_ionizer_Ionization_penalty>
0.00741239

> <r_ionizer_Ionization_penalty_charging>
0

> <r_ionizer_Ionization_penalty_neutral>
0.00741239

$$$$
ZINC001211849856
                    3D
 Schrodinger Suite 2019-4.
 51 55  0  0  1  0            999 V2000
   -3.6870    0.8764   -2.9155 C   0  0  0  0  0  0
   -3.9182    0.5650   -1.4685 C   0  0  0  0  0  0
   -5.0665    0.9950   -0.8274 C   0  0  0  0  0  0
   -5.2314    0.6677    0.5125 C   0  0  0  0  0  0
   -4.2511   -0.0723    1.1868 C   0  0  0  0  0  0
   -4.4090   -0.4004    2.5450 C   0  0  0  0  0  0
   -3.4287   -1.1170    3.2200 C   0  0  0  0  0  0
   -2.2813   -1.5053    2.5392 C   0  0  0  0  0  0
   -2.1133   -1.1910    1.1761 C   0  0  0  0  0  0
   -0.8575   -1.5685    0.5393 C   0  0  0  0  0  0
   -0.7303   -2.0356   -0.7147 N   0  0  0  0  0  0
    0.6463   -2.0495   -0.9213 O   0  0  0  0  0  0
    1.2203   -1.6458    0.2471 C   0  0  0  0  0  0
    2.6923   -1.4023    0.2636 C   0  0  1  0  0  0
    3.4163   -1.8616   -1.0083 C   0  0  0  0  0  0
    4.9302   -1.6150   -0.9297 C   0  0  0  0  0  0
    5.3330   -0.6451    0.1828 C   0  0  0  0  0  0
    3.0392    0.0846    0.6138 C   0  0  2  0  0  0
    2.0395    1.1229    0.1069 C   0  0  0  0  0  0
    1.0836    1.6522    0.9940 C   0  0  0  0  0  0
    0.0937    2.5271    0.5461 C   0  0  0  0  0  0
    0.0513    2.9013   -0.7944 C   0  0  0  0  0  0
    1.0048    2.4069   -1.6832 C   0  0  0  0  0  0
    1.9918    1.5232   -1.2372 C   0  0  0  0  0  0
    0.3466   -1.4513    1.2102 N   0  0  0  0  0  0
   -3.0973   -0.4708    0.4734 C   0  0  0  0  0  0
   -2.9574   -0.1385   -0.8319 N   0  0  0  0  0  0
   -3.5422    1.9511   -3.0524 H   0  0  0  0  0  0
   -4.5405    0.5511   -3.5180 H   0  0  0  0  0  0
   -2.7960    0.3603   -3.2855 H   0  0  0  0  0  0
   -5.8201    1.5688   -1.3557 H   0  0  0  0  0  0
   -6.1300    0.9984    1.0294 H   0  0  0  0  0  0
   -5.3018   -0.0944    3.0859 H   0  0  0  0  0  0
   -3.5507   -1.3639    4.2697 H   0  0  0  0  0  0
   -1.5026   -2.0509    3.0715 H   0  0  0  0  0  0
    3.0937   -2.0232    1.0813 H   0  0  0  0  0  0
    3.0185   -1.3395   -1.8862 H   0  0  0  0  0  0
    3.2338   -2.9293   -1.1882 H   0  0  0  0  0  0
    5.4501   -2.5674   -0.7686 H   0  0  0  0  0  0
    5.2749   -1.2351   -1.9007 H   0  0  0  0  0  0
    6.3500   -0.2845   -0.0102 H   0  0  0  0  0  0
    5.3610   -1.1543    1.1549 H   0  0  0  0  0  0
    3.0168    0.1379    1.7129 H   0  0  0  0  0  0
    1.0745    1.3452    2.0380 H   0  0  0  0  0  0
   -0.6593    2.8951    1.2377 H   0  0  0  0  0  0
   -0.7312    3.5674   -1.1480 H   0  0  0  0  0  0
    0.9706    2.6978   -2.7296 H   0  0  0  0  0  0
    2.7168    1.1363   -1.9503 H   0  0  0  0  0  0
    4.4197    0.5018    0.2181 N   0  3  0  0  0  0
    4.7699    1.1873    0.8976 H   0  0  0  0  0  0
    4.3855    0.9307   -0.7142 H   0  0  0  0  0  0
  1  2  1  0  0  0
  1 28  1  0  0  0
  1 29  1  0  0  0
  1 30  1  0  0  0
  2  3  1  0  0  0
  2 27  2  0  0  0
  3  4  2  0  0  0
  3 31  1  0  0  0
  4  5  1  0  0  0
  4 32  1  0  0  0
  5  6  1  0  0  0
  5 26  2  0  0  0
  6  7  2  0  0  0
  6 33  1  0  0  0
  7  8  1  0  0  0
  7 34  1  0  0  0
  8  9  2  0  0  0
  8 35  1  0  0  0
  9 10  1  0  0  0
  9 26  1  0  0  0
 10 11  2  0  0  0
 10 25  1  0  0  0
 11 12  1  0  0  0
 12 13  1  0  0  0
 13 14  1  0  0  0
 13 25  2  0  0  0
 14 15  1  0  0  0
 14 18  1  0  0  0
 14 36  1  0  0  0
 15 16  1  0  0  0
 15 37  1  0  0  0
 15 38  1  0  0  0
 16 17  1  0  0  0
 16 39  1  0  0  0
 16 40  1  0  0  0
 17 41  1  0  0  0
 17 42  1  0  0  0
 17 49  1  0  0  0
 18 19  1  0  0  0
 18 43  1  0  0  0
 18 49  1  0  0  0
 19 20  2  0  0  0
 19 24  1  0  0  0
 20 21  1  0  0  0
 20 44  1  0  0  0
 21 22  2  0  0  0
 21 45  1  0  0  0
 22 23  1  0  0  0
 22 46  1  0  0  0
 23 24  2  0  0  0
 23 47  1  0  0  0
 24 48  1  0  0  0
 26 27  1  0  0  0
 49 50  1  0  0  0
 49 51  1  0  0  0
M  CHG  1  49   1
M  END
> <energy>
97.17

> <i_ionizer_Ion_state_n>
1

> <i_ionizer_Tot_Q>
1

> <s_ionizer_Ion_centers>
49

> <s_ionizer_Ion_types>
N5

> <s_ionizer_Ion_ctrs_in>
18

> <r_ionizer_Ionization_penalty>
0.0075612

> <r_ionizer_Ionization_penalty_charging>
0.000148807

> <r_ionizer_Ionization_penalty_neutral>
0.00741239

$$$$
ZINC001211849857
                    3D
 Schrodinger Suite 2019-4.
 51 55  0  0  1  0            999 V2000
   -4.2844    2.1710    1.9466 C   0  0  0  0  0  0
   -3.8721    2.2345    0.5076 C   0  0  0  0  0  0
   -4.2013    3.3154   -0.2898 C   0  0  0  0  0  0
   -3.7659    3.3246   -1.6096 C   0  0  0  0  0  0
   -2.9985    2.2618   -2.1030 C   0  0  0  0  0  0
   -2.5645    2.2507   -3.4404 C   0  0  0  0  0  0
   -1.7991    1.1985   -3.9270 C   0  0  0  0  0  0
   -1.4582    0.1597   -3.0709 C   0  0  0  0  0  0
   -1.8891    0.1630   -1.7285 C   0  0  0  0  0  0
   -1.4283   -0.9227   -0.8765 C   0  0  0  0  0  0
   -1.5953   -2.2203   -1.1853 N   0  0  0  0  0  0
   -0.6673   -2.8715   -0.3706 O   0  0  0  0  0  0
   -0.0191   -1.8959    0.3351 C   0  0  0  0  0  0
    1.2463   -2.3061    1.0178 C   0  0  2  0  0  0
    0.9724   -3.1630    2.2601 C   0  0  0  0  0  0
    2.2928   -3.5810    2.9082 C   0  0  0  0  0  0
    3.1784   -2.3752    3.2150 C   0  0  0  0  0  0
    2.1449   -1.0988    1.4040 C   0  0  2  0  0  0
    2.4940   -0.1945    0.2266 C   0  0  0  0  0  0
    2.0856    1.1480    0.2351 C   0  0  0  0  0  0
    2.3336    1.9726   -0.8616 C   0  0  0  0  0  0
    3.0041    1.4711   -1.9760 C   0  0  0  0  0  0
    3.4404    0.1493   -1.9857 C   0  0  0  0  0  0
    3.1925   -0.6785   -0.8907 C   0  0  0  0  0  0
   -0.5222   -0.7019    0.1369 N   0  0  0  0  0  0
   -2.6739    1.2034   -1.2215 C   0  0  0  0  0  0
   -3.1234    1.2053    0.0551 N   0  0  0  0  0  0
   -4.5607    1.1446    2.2149 H   0  0  0  0  0  0
   -5.1467    2.8136    2.1442 H   0  0  0  0  0  0
   -3.4501    2.4886    2.5803 H   0  0  0  0  0  0
   -4.7871    4.1385    0.0998 H   0  0  0  0  0  0
   -4.0300    4.1630   -2.2485 H   0  0  0  0  0  0
   -2.8126    3.0714   -4.1104 H   0  0  0  0  0  0
   -1.4604    1.1896   -4.9592 H   0  0  0  0  0  0
   -0.8415   -0.6559   -3.4413 H   0  0  0  0  0  0
    1.7937   -2.9294    0.2943 H   0  0  0  0  0  0
    0.3672   -2.6027    2.9830 H   0  0  0  0  0  0
    0.3949   -4.0569    1.9929 H   0  0  0  0  0  0
    2.0960   -4.1393    3.8299 H   0  0  0  0  0  0
    2.8254   -4.2630    2.2321 H   0  0  0  0  0  0
    4.1465   -2.7281    3.5904 H   0  0  0  0  0  0
    2.7311   -1.7626    4.0073 H   0  0  0  0  0  0
    1.6100   -0.4949    2.1517 H   0  0  0  0  0  0
    1.5350    1.5499    1.0851 H   0  0  0  0  0  0
    1.9974    3.0043   -0.8470 H   0  0  0  0  0  0
    3.1834    2.1120   -2.8333 H   0  0  0  0  0  0
    3.9671   -0.2415   -2.8518 H   0  0  0  0  0  0
    3.5459   -1.7072   -0.9102 H   0  0  0  0  0  0
    3.4266   -1.5620    2.0139 N   0  3  0  0  0  0
    3.9896   -0.7436    2.2736 H   0  0  0  0  0  0
    3.9401   -2.1267    1.3270 H   0  0  0  0  0  0
  1  2  1  0  0  0
  1 28  1  0  0  0
  1 29  1  0  0  0
  1 30  1  0  0  0
  2  3  1  0  0  0
  2 27  2  0  0  0
  3  4  2  0  0  0
  3 31  1  0  0  0
  4  5  1  0  0  0
  4 32  1  0  0  0
  5  6  1  0  0  0
  5 26  2  0  0  0
  6  7  2  0  0  0
  6 33  1  0  0  0
  7  8  1  0  0  0
  7 34  1  0  0  0
  8  9  2  0  0  0
  8 35  1  0  0  0
  9 10  1  0  0  0
  9 26  1  0  0  0
 10 11  2  0  0  0
 10 25  1  0  0  0
 11 12  1  0  0  0
 12 13  1  0  0  0
 13 14  1  0  0  0
 13 25  2  0  0  0
 14 15  1  0  0  0
 14 18  1  0  0  0
 14 36  1  0  0  0
 15 16  1  0  0  0
 15 37  1  0  0  0
 15 38  1  0  0  0
 16 17  1  0  0  0
 16 39  1  0  0  0
 16 40  1  0  0  0
 17 41  1  0  0  0
 17 42  1  0  0  0
 17 49  1  0  0  0
 18 19  1  0  0  0
 18 43  1  0  0  0
 18 49  1  0  0  0
 19 20  2  0  0  0
 19 24  1  0  0  0
 20 21  1  0  0  0
 20 44  1  0  0  0
 21 22  2  0  0  0
 21 45  1  0  0  0
 22 23  1  0  0  0
 22 46  1  0  0  0
 23 24  2  0  0  0
 23 47  1  0  0  0
 24 48  1  0  0  0
 26 27  1  0  0  0
 49 50  1  0  0  0
 49 51  1  0  0  0
M  CHG  1  49   1
M  END
> <energy>
91.2902

> <i_ionizer_Ion_state_n>
1

> <i_ionizer_Tot_Q>
1

> <s_ionizer_Ion_centers>
49

> <s_ionizer_Ion_types>
N5

> <s_ionizer_Ion_ctrs_in>
18

> <r_ionizer_Ionization_penalty>
0.0075612

> <r_ionizer_Ionization_penalty_charging>
0.000148807

> <r_ionizer_Ionization_penalty_neutral>
0.00741239

$$$$
ZINC001211849858
                    3D
 Schrodinger Suite 2019-4.
 51 55  0  0  1  0            999 V2000
   -3.2082    0.7652    2.5801 C   0  0  0  0  0  0
   -3.6854    0.0628    1.3454 C   0  0  0  0  0  0
   -5.0361   -0.0537    1.0781 C   0  0  0  0  0  0
   -5.4202   -0.7325   -0.0707 C   0  0  0  0  0  0
   -4.4543   -1.2698   -0.9314 C   0  0  0  0  0  0
   -4.8542   -1.9684   -2.0825 C   0  0  0  0  0  0
   -3.9090   -2.4951   -2.9501 C   0  0  0  0  0  0
   -2.5592   -2.3111   -2.6764 C   0  0  0  0  0  0
   -2.1381   -1.6086   -1.5247 C   0  0  0  0  0  0
   -0.7003   -1.4160   -1.3217 C   0  0  0  0  0  0
    0.1865   -1.4130   -2.3381 N   0  0  0  0  0  0
    1.4064   -1.1534   -1.7222 O   0  0  0  0  0  0
    1.1482   -1.0366   -0.3891 C   0  0  0  0  0  0
    2.2886   -0.7005    0.5107 C   0  0  1  0  0  0
    3.2320   -1.9064    0.6405 C   0  0  0  0  0  0
    4.4341   -1.5610    1.5132 C   0  0  0  0  0  0
    5.1473   -0.3128    1.0024 C   0  0  0  0  0  0
    3.0775    0.5475    0.0279 C   0  0  1  0  0  0
    2.1939    1.7874   -0.0487 C   0  0  0  0  0  0
    1.7292    2.4232    1.1136 C   0  0  0  0  0  0
    0.8725    3.5215    1.0308 C   0  0  0  0  0  0
    0.4688    3.9976   -0.2143 C   0  0  0  0  0  0
    0.9304    3.3860   -1.3771 C   0  0  0  0  0  0
    1.7915    2.2903   -1.2967 C   0  0  0  0  0  0
   -0.1099   -1.2458   -0.0888 N   0  0  0  0  0  0
   -3.0863   -1.0870   -0.6205 C   0  0  0  0  0  0
   -2.7398   -0.4185    0.5082 N   0  0  0  0  0  0
   -3.8436    0.5171    3.4375 H   0  0  0  0  0  0
   -2.1858    0.4596    2.8273 H   0  0  0  0  0  0
   -3.2225    1.8484    2.4266 H   0  0  0  0  0  0
   -5.7793    0.3622    1.7499 H   0  0  0  0  0  0
   -6.4796   -0.8392   -0.2883 H   0  0  0  0  0  0
   -5.9102   -2.1045   -2.3072 H   0  0  0  0  0  0
   -4.2186   -3.0384   -3.8386 H   0  0  0  0  0  0
   -1.8254   -2.7199   -3.3692 H   0  0  0  0  0  0
    1.8712   -0.4941    1.5066 H   0  0  0  0  0  0
    3.5856   -2.2177   -0.3499 H   0  0  0  0  0  0
    2.6962   -2.7655    1.0634 H   0  0  0  0  0  0
    4.0966   -1.3998    2.5444 H   0  0  0  0  0  0
    5.1307   -2.4076    1.5334 H   0  0  0  0  0  0
    5.6112   -0.5108    0.0288 H   0  0  0  0  0  0
    5.9574   -0.0544    1.6931 H   0  0  0  0  0  0
    3.4725    0.3540   -0.9796 H   0  0  0  0  0  0
    2.0305    2.0561    2.0928 H   0  0  0  0  0  0
    0.5118    3.9947    1.9394 H   0  0  0  0  0  0
   -0.2141    4.8400   -0.2776 H   0  0  0  0  0  0
    0.6091    3.7520   -2.3482 H   0  0  0  0  0  0
    2.1267    1.8187   -2.2189 H   0  0  0  0  0  0
    4.2409    0.8425    0.9132 N   0  3  0  0  0  0
    3.8970    1.0718    1.8531 H   0  0  0  0  0  0
    4.7568    1.6444    0.5325 H   0  0  0  0  0  0
  1  2  1  0  0  0
  1 28  1  0  0  0
  1 29  1  0  0  0
  1 30  1  0  0  0
  2  3  1  0  0  0
  2 27  2  0  0  0
  3  4  2  0  0  0
  3 31  1  0  0  0
  4  5  1  0  0  0
  4 32  1  0  0  0
  5  6  1  0  0  0
  5 26  2  0  0  0
  6  7  2  0  0  0
  6 33  1  0  0  0
  7  8  1  0  0  0
  7 34  1  0  0  0
  8  9  2  0  0  0
  8 35  1  0  0  0
  9 10  1  0  0  0
  9 26  1  0  0  0
 10 11  2  0  0  0
 10 25  1  0  0  0
 11 12  1  0  0  0
 12 13  1  0  0  0
 13 14  1  0  0  0
 13 25  2  0  0  0
 14 15  1  0  0  0
 14 18  1  0  0  0
 14 36  1  0  0  0
 15 16  1  0  0  0
 15 37  1  0  0  0
 15 38  1  0  0  0
 16 17  1  0  0  0
 16 39  1  0  0  0
 16 40  1  0  0  0
 17 41  1  0  0  0
 17 42  1  0  0  0
 17 49  1  0  0  0
 18 19  1  0  0  0
 18 43  1  0  0  0
 18 49  1  0  0  0
 19 20  2  0  0  0
 19 24  1  0  0  0
 20 21  1  0  0  0
 20 44  1  0  0  0
 21 22  2  0  0  0
 21 45  1  0  0  0
 22 23  1  0  0  0
 22 46  1  0  0  0
 23 24  2  0  0  0
 23 47  1  0  0  0
 24 48  1  0  0  0
 26 27  1  0  0  0
 49 50  1  0  0  0
 49 51  1  0  0  0
M  CHG  1  49   1
M  END
> <energy>
86.9543

> <i_ionizer_Ion_state_n>
1

> <i_ionizer_Tot_Q>
1

> <s_ionizer_Ion_centers>
49

> <s_ionizer_Ion_types>
N5

> <s_ionizer_Ion_ctrs_in>
18

> <r_ionizer_Ionization_penalty>
0.0075612

> <r_ionizer_Ionization_penalty_charging>
0.000148807

> <r_ionizer_Ionization_penalty_neutral>
0.00741239

$$$$
ZINC001211849859
                    3D
 Schrodinger Suite 2019-4.
 51 55  0  0  1  0            999 V2000
   -2.2981    0.2306    3.0699 C   0  0  0  0  0  0
   -2.9894    0.1888    1.7415 C   0  0  0  0  0  0
   -4.2976    0.6112    1.5989 C   0  0  0  0  0  0
   -4.8895    0.4948    0.3474 C   0  0  0  0  0  0
   -4.1691   -0.0424   -0.7271 C   0  0  0  0  0  0
   -4.7814   -0.1729   -1.9856 C   0  0  0  0  0  0
   -4.0849   -0.7133   -3.0566 C   0  0  0  0  0  0
   -2.7677   -1.1084   -2.8756 C   0  0  0  0  0  0
   -2.1278   -0.9755   -1.6214 C   0  0  0  0  0  0
   -0.7211   -1.3739   -1.5255 C   0  0  0  0  0  0
   -0.1433   -2.2350   -2.3887 N   0  0  0  0  0  0
    1.1966   -2.2445   -2.0133 O   0  0  0  0  0  0
    1.3117   -1.3809   -0.9662 C   0  0  0  0  0  0
    2.6777   -1.1991   -0.3935 C   0  0  2  0  0  0
    3.0495   -2.4313    0.4487 C   0  0  0  0  0  0
    2.2661   -2.4717    1.7622 C   0  0  0  0  0  0
    2.4249   -1.1584    2.5258 C   0  0  0  0  0  0
    2.8222    0.0953    0.4639 C   0  0  1  0  0  0
    2.5719    1.4384   -0.2409 C   0  0  0  0  0  0
    2.5459    2.6251    0.5193 C   0  0  0  0  0  0
    2.3369    3.8726   -0.0735 C   0  0  0  0  0  0
    2.1522    3.9658   -1.4486 C   0  0  0  0  0  0
    2.1935    2.8130   -2.2253 C   0  0  0  0  0  0
    2.4170    1.5666   -1.6299 C   0  0  0  0  0  0
    0.1696   -0.8369   -0.6230 N   0  0  0  0  0  0
   -2.8314   -0.4502   -0.5176 C   0  0  0  0  0  0
   -2.2816   -0.3383    0.7163 N   0  0  0  0  0  0
   -1.2362    0.4623    2.9351 H   0  0  0  0  0  0
   -2.7273    0.9951    3.7258 H   0  0  0  0  0  0
   -2.3835   -0.7450    3.5594 H   0  0  0  0  0  0
   -4.8524    1.0224    2.4370 H   0  0  0  0  0  0
   -5.9164    0.8275    0.2206 H   0  0  0  0  0  0
   -5.8109    0.1397   -2.1364 H   0  0  0  0  0  0
   -4.5564   -0.8203   -4.0291 H   0  0  0  0  0  0
   -2.2217   -1.5115   -3.7288 H   0  0  0  0  0  0
    3.3910   -1.1471   -1.2271 H   0  0  0  0  0  0
    2.8847   -3.3577   -0.1142 H   0  0  0  0  0  0
    4.1215   -2.3943    0.6822 H   0  0  0  0  0  0
    1.2046   -2.6608    1.5646 H   0  0  0  0  0  0
    2.6249   -3.3077    2.3727 H   0  0  0  0  0  0
    1.8037   -1.1846    3.4288 H   0  0  0  0  0  0
    3.4645   -1.0438    2.8601 H   0  0  0  0  0  0
    3.8815    0.1539    0.7552 H   0  0  0  0  0  0
    2.6862    2.5810    1.5972 H   0  0  0  0  0  0
    2.3115    4.7680    0.5409 H   0  0  0  0  0  0
    1.9832    4.9338   -1.9136 H   0  0  0  0  0  0
    2.0508    2.8794   -3.3005 H   0  0  0  0  0  0
    2.4478    0.7069   -2.2898 H   0  0  0  0  0  0
    2.0292    0.0168    1.7288 N   0  3  0  0  0  0
    1.0317   -0.0553    1.4963 H   0  0  0  0  0  0
    2.1915    0.8672    2.2807 H   0  0  0  0  0  0
  1  2  1  0  0  0
  1 28  1  0  0  0
  1 29  1  0  0  0
  1 30  1  0  0  0
  2  3  1  0  0  0
  2 27  2  0  0  0
  3  4  2  0  0  0
  3 31  1  0  0  0
  4  5  1  0  0  0
  4 32  1  0  0  0
  5  6  1  0  0  0
  5 26  2  0  0  0
  6  7  2  0  0  0
  6 33  1  0  0  0
  7  8  1  0  0  0
  7 34  1  0  0  0
  8  9  2  0  0  0
  8 35  1  0  0  0
  9 10  1  0  0  0
  9 26  1  0  0  0
 10 11  2  0  0  0
 10 25  1  0  0  0
 11 12  1  0  0  0
 12 13  1  0  0  0
 13 14  1  0  0  0
 13 25  2  0  0  0
 14 15  1  0  0  0
 14 18  1  0  0  0
 14 36  1  0  0  0
 15 16  1  0  0  0
 15 37  1  0  0  0
 15 38  1  0  0  0
 16 17  1  0  0  0
 16 39  1  0  0  0
 16 40  1  0  0  0
 17 41  1  0  0  0
 17 42  1  0  0  0
 17 49  1  0  0  0
 18 19  1  0  0  0
 18 43  1  0  0  0
 18 49  1  0  0  0
 19 20  2  0  0  0
 19 24  1  0  0  0
 20 21  1  0  0  0
 20 44  1  0  0  0
 21 22  2  0  0  0
 21 45  1  0  0  0
 22 23  1  0  0  0
 22 46  1  0  0  0
 23 24  2  0  0  0
 23 47  1  0  0  0
 24 48  1  0  0  0
 26 27  1  0  0  0
 49 50  1  0  0  0
 49 51  1  0  0  0
M  CHG  1  49   1
M  END
> <energy>
93.4402

> <i_ionizer_Ion_state_n>
1

> <i_ionizer_Tot_Q>
1

> <s_ionizer_Ion_centers>
49

> <s_ionizer_Ion_types>
N5

> <s_ionizer_Ion_ctrs_in>
18

> <r_ionizer_Ionization_penalty>
0.0075612

> <r_ionizer_Ionization_penalty_charging>
0.000148807

> <r_ionizer_Ionization_penalty_neutral>
0.00741239

$$$$
ZINC001211849880
                    3D
 Schrodinger Suite 2019-4.
 49 52  0  0  1  0            999 V2000
    3.1659    3.8885    0.0084 C   0  0  0  0  0  0
    3.6131    3.2398    1.3104 C   0  0  0  0  0  0
    3.7497    1.7450    1.1983 C   0  0  0  0  0  0
    2.6463    0.9472    0.8555 C   0  0  0  0  0  0
    2.7587   -0.4498    0.7791 C   0  0  0  0  0  0
    1.5877   -1.2377    0.4476 C   0  0  0  0  0  0
    1.1616   -2.2742    1.1861 N   0  0  0  0  0  0
   -0.0077   -2.6689    0.5509 O   0  0  0  0  0  0
   -0.1688   -1.8467   -0.5319 C   0  0  0  0  0  0
   -1.3027   -2.1374   -1.4611 C   0  0  1  0  0  0
   -1.9675   -3.5015   -1.1920 C   0  0  0  0  0  0
   -3.0861   -3.3808   -0.1615 C   0  0  0  0  0  0
   -4.1200   -2.3154   -0.5324 C   0  0  0  0  0  0
   -2.3628   -0.9952   -1.6245 C   0  0  2  0  0  0
   -2.3067    0.2903   -0.8054 C   0  0  0  0  0  0
   -2.1562    0.3283    0.5868 C   0  0  0  0  0  0
   -2.1054    1.5479    1.2693 C   0  0  0  0  0  0
   -2.2255    2.7511    0.5747 C   0  0  0  0  0  0
   -2.4249    2.7344   -0.8008 C   0  0  0  0  0  0
   -2.4748    1.5182   -1.4812 C   0  0  0  0  0  0
    0.7905   -0.9550   -0.6388 N   0  0  0  0  0  0
    3.9927   -1.0562    1.0456 C   0  0  0  0  0  0
    5.0970   -0.2723    1.3912 C   0  0  0  0  0  0
    4.9659    1.1122    1.4741 C   0  0  0  0  0  0
    6.0365    1.8376    1.8307 F   0  0  0  0  0  0
    2.1803    3.5308   -0.3083 H   0  0  0  0  0  0
    3.8736    3.6797   -0.8006 H   0  0  0  0  0  0
    3.1004    4.9733    0.1316 H   0  0  0  0  0  0
    4.5639    3.6898    1.6178 H   0  0  0  0  0  0
    2.8917    3.4633    2.1038 H   0  0  0  0  0  0
    1.6813    1.4103    0.6585 H   0  0  0  0  0  0
   -0.8257   -2.2637   -2.4463 H   0  0  0  0  0  0
   -1.2350   -4.2573   -0.8817 H   0  0  0  0  0  0
   -2.3944   -3.8827   -2.1289 H   0  0  0  0  0  0
   -2.6527   -3.1440    0.8167 H   0  0  0  0  0  0
   -3.5819   -4.3533   -0.0546 H   0  0  0  0  0  0
   -5.0772   -2.8029   -0.7552 H   0  0  0  0  0  0
   -4.3139   -1.6743    0.3325 H   0  0  0  0  0  0
   -2.1772   -0.6474   -2.6527 H   0  0  0  0  0  0
   -2.0811   -0.5887    1.1621 H   0  0  0  0  0  0
   -1.9766    1.5593    2.3474 H   0  0  0  0  0  0
   -2.1841    3.6958    1.1091 H   0  0  0  0  0  0
   -2.5462    3.6687   -1.3439 H   0  0  0  0  0  0
   -2.6553    1.5316   -2.5545 H   0  0  0  0  0  0
    4.1052   -2.1366    0.9818 H   0  0  0  0  0  0
    6.0579   -0.7292    1.6038 H   0  0  0  0  0  0
   -3.7710   -1.4946   -1.7082 N   0  3  0  0  0  0
   -3.8740   -2.0644   -2.5561 H   0  0  0  0  0  0
   -4.4086   -0.6912   -1.7561 H   0  0  0  0  0  0
  1  2  1  0  0  0
  1 26  1  0  0  0
  1 27  1  0  0  0
  1 28  1  0  0  0
  2  3  1  0  0  0
  2 29  1  0  0  0
  2 30  1  0  0  0
  3  4  2  0  0  0
  3 24  1  0  0  0
  4  5  1  0  0  0
  4 31  1  0  0  0
  5  6  1  0  0  0
  5 22  2  0  0  0
  6  7  2  0  0  0
  6 21  1  0  0  0
  7  8  1  0  0  0
  8  9  1  0  0  0
  9 10  1  0  0  0
  9 21  2  0  0  0
 10 11  1  0  0  0
 10 14  1  0  0  0
 10 32  1  0  0  0
 11 12  1  0  0  0
 11 33  1  0  0  0
 11 34  1  0  0  0
 12 13  1  0  0  0
 12 35  1  0  0  0
 12 36  1  0  0  0
 13 37  1  0  0  0
 13 38  1  0  0  0
 13 47  1  0  0  0
 14 15  1  0  0  0
 14 39  1  0  0  0
 14 47  1  0  0  0
 15 16  2  0  0  0
 15 20  1  0  0  0
 16 17  1  0  0  0
 16 40  1  0  0  0
 17 18  2  0  0  0
 17 41  1  0  0  0
 18 19  1  0  0  0
 18 42  1  0  0  0
 19 20  2  0  0  0
 19 43  1  0  0  0
 20 44  1  0  0  0
 22 23  1  0  0  0
 22 45  1  0  0  0
 23 24  2  0  0  0
 23 46  1  0  0  0
 24 25  1  0  0  0
 47 48  1  0  0  0
 47 49  1  0  0  0
M  CHG  1  47   1
M  END
> <energy>
82.0443

> <i_ionizer_Ion_state_n>
1

> <i_ionizer_Tot_Q>
1

> <s_ionizer_Ion_centers>
47

> <s_ionizer_Ion_types>
N5

> <s_ionizer_Ion_ctrs_in>
14

> <r_ionizer_Ionization_penalty>
0.000148807

> <r_ionizer_Ionization_penalty_charging>
0.000148807

> <r_ionizer_Ionization_penalty_neutral>
0

$$$$
ZINC001211849881
                    3D
 Schrodinger Suite 2019-4.
 49 52  0  0  1  0            999 V2000
    4.6318    2.3232    2.0401 C   0  0  0  0  0  0
    5.2951    1.1341    1.3597 C   0  0  0  0  0  0
    4.5293    0.6420    0.1575 C   0  0  0  0  0  0
    3.2791    0.0146    0.3001 C   0  0  0  0  0  0
    2.5715   -0.4568   -0.8196 C   0  0  0  0  0  0
    1.2499   -1.0554   -0.6598 C   0  0  0  0  0  0
    0.6015   -1.7023   -1.6434 N   0  0  0  0  0  0
   -0.6467   -1.9774   -1.0925 O   0  0  0  0  0  0
   -0.6295   -1.4808    0.1783 C   0  0  0  0  0  0
   -1.9029   -1.5132    0.9529 C   0  0  2  0  0  0
   -2.7931   -2.7128    0.6007 C   0  0  0  0  0  0
   -4.0584   -2.7514    1.4675 C   0  0  0  0  0  0
   -4.4709   -1.3836    2.0178 C   0  0  0  0  0  0
   -2.6923   -0.1666    0.8674 C   0  0  1  0  0  0
   -2.4468    0.6619   -0.3899 C   0  0  0  0  0  0
   -3.0343    0.3264   -1.6189 C   0  0  0  0  0  0
   -2.7600    1.0731   -2.7679 C   0  0  0  0  0  0
   -1.8954    2.1643   -2.7051 C   0  0  0  0  0  0
   -1.3113    2.5181   -1.4936 C   0  0  0  0  0  0
   -1.5825    1.7713   -0.3448 C   0  0  0  0  0  0
    0.5304   -0.9602    0.5145 N   0  0  0  0  0  0
    3.1339   -0.2974   -2.0948 C   0  0  0  0  0  0
    4.3716    0.3281   -2.2487 C   0  0  0  0  0  0
    5.0511    0.7962   -1.1294 C   0  0  0  0  0  0
    6.2263    1.4184   -1.3056 F   0  0  0  0  0  0
    4.5002    3.1569    1.3421 H   0  0  0  0  0  0
    5.2517    2.6764    2.8715 H   0  0  0  0  0  0
    3.6471    2.0586    2.4427 H   0  0  0  0  0  0
    6.3156    1.4171    1.0711 H   0  0  0  0  0  0
    5.4002    0.3082    2.0732 H   0  0  0  0  0  0
    2.8486   -0.1046    1.2940 H   0  0  0  0  0  0
   -1.6221   -1.6505    2.0104 H   0  0  0  0  0  0
   -3.0885   -2.6723   -0.4541 H   0  0  0  0  0  0
   -2.2428   -3.6543    0.7224 H   0  0  0  0  0  0
   -3.8987   -3.4268    2.3176 H   0  0  0  0  0  0
   -4.8740   -3.1873    0.8775 H   0  0  0  0  0  0
   -5.5496   -1.3892    2.2153 H   0  0  0  0  0  0
   -3.9791   -1.1886    2.9776 H   0  0  0  0  0  0
   -2.3354    0.4391    1.7121 H   0  0  0  0  0  0
   -3.7110   -0.5234   -1.6895 H   0  0  0  0  0  0
   -3.2173    0.7986   -3.7137 H   0  0  0  0  0  0
   -1.6759    2.7386   -3.6028 H   0  0  0  0  0  0
   -0.6368    3.3689   -1.4407 H   0  0  0  0  0  0
   -1.0995    2.0545    0.5886 H   0  0  0  0  0  0
    2.6059   -0.6438   -2.9813 H   0  0  0  0  0  0
    4.8017    0.4674   -3.2353 H   0  0  0  0  0  0
   -4.1674   -0.3129    1.0654 N   0  3  0  0  0  0
   -4.6063   -0.5329    0.1636 H   0  0  0  0  0  0
   -4.5466    0.5713    1.4240 H   0  0  0  0  0  0
  1  2  1  0  0  0
  1 26  1  0  0  0
  1 27  1  0  0  0
  1 28  1  0  0  0
  2  3  1  0  0  0
  2 29  1  0  0  0
  2 30  1  0  0  0
  3  4  2  0  0  0
  3 24  1  0  0  0
  4  5  1  0  0  0
  4 31  1  0  0  0
  5  6  1  0  0  0
  5 22  2  0  0  0
  6  7  2  0  0  0
  6 21  1  0  0  0
  7  8  1  0  0  0
  8  9  1  0  0  0
  9 10  1  0  0  0
  9 21  2  0  0  0
 10 11  1  0  0  0
 10 14  1  0  0  0
 10 32  1  0  0  0
 11 12  1  0  0  0
 11 33  1  0  0  0
 11 34  1  0  0  0
 12 13  1  0  0  0
 12 35  1  0  0  0
 12 36  1  0  0  0
 13 37  1  0  0  0
 13 38  1  0  0  0
 13 47  1  0  0  0
 14 15  1  0  0  0
 14 39  1  0  0  0
 14 47  1  0  0  0
 15 16  2  0  0  0
 15 20  1  0  0  0
 16 17  1  0  0  0
 16 40  1  0  0  0
 17 18  2  0  0  0
 17 41  1  0  0  0
 18 19  1  0  0  0
 18 42  1  0  0  0
 19 20  2  0  0  0
 19 43  1  0  0  0
 20 44  1  0  0  0
 22 23  1  0  0  0
 22 45  1  0  0  0
 23 24  2  0  0  0
 23 46  1  0  0  0
 24 25  1  0  0  0
 47 48  1  0  0  0
 47 49  1  0  0  0
M  CHG  1  47   1
M  END
> <energy>
68.3205

> <i_ionizer_Ion_state_n>
1

> <i_ionizer_Tot_Q>
1

> <s_ionizer_Ion_centers>
47

> <s_ionizer_Ion_types>
N5

> <s_ionizer_Ion_ctrs_in>
14

> <r_ionizer_Ionization_penalty>
0.000148807

> <r_ionizer_Ionization_penalty_charging>
0.000148807

> <r_ionizer_Ionization_penalty_neutral>
0

$$$$
ZINC001211849882
                    3D
 Schrodinger Suite 2019-4.
 49 52  0  0  1  0            999 V2000
    5.7478    1.4900   -2.8053 C   0  0  0  0  0  0
    5.5967    2.4561   -1.6386 C   0  0  0  0  0  0
    4.8002    1.8778   -0.4969 C   0  0  0  0  0  0
    3.4164    1.6527   -0.6264 C   0  0  0  0  0  0
    2.6613    1.1168    0.4314 C   0  0  0  0  0  0
    1.2455    0.7874    0.2686 C   0  0  0  0  0  0
    0.4946    1.1741   -0.7765 N   0  0  0  0  0  0
   -0.6987    0.4744   -0.6109 O   0  0  0  0  0  0
   -0.5628   -0.2638    0.5273 C   0  0  0  0  0  0
   -1.5634   -1.3485    0.8080 C   0  0  2  0  0  0
   -0.8174   -2.6980    0.6460 C   0  0  0  0  0  0
   -1.6352   -3.7821   -0.0399 C   0  0  0  0  0  0
   -3.0780   -3.7314    0.4205 C   0  0  0  0  0  0
   -2.8466   -1.3010   -0.0681 C   0  0  2  0  0  0
   -3.6956   -0.0540    0.1666 C   0  0  0  0  0  0
   -4.3766    0.1441    1.3804 C   0  0  0  0  0  0
   -5.1697    1.2758    1.5820 C   0  0  0  0  0  0
   -5.2934    2.2285    0.5727 C   0  0  0  0  0  0
   -4.6332    2.0437   -0.6403 C   0  0  0  0  0  0
   -3.8480    0.9074   -0.8448 C   0  0  0  0  0  0
    0.5917   -0.0689    1.1280 N   0  0  0  0  0  0
    3.3070    0.8303    1.6423 C   0  0  0  0  0  0
    4.6774    1.0542    1.7840 C   0  0  0  0  0  0
    5.4150    1.5617    0.7159 C   0  0  0  0  0  0
    6.7354    1.7488    0.8737 F   0  0  0  0  0  0
    6.2869    0.5874   -2.5023 H   0  0  0  0  0  0
    4.7769    1.1833   -3.2090 H   0  0  0  0  0  0
    6.3145    1.9621   -3.6151 H   0  0  0  0  0  0
    6.5956    2.7562   -1.2956 H   0  0  0  0  0  0
    5.1042    3.3759   -1.9817 H   0  0  0  0  0  0
    2.9287    1.8893   -1.5726 H   0  0  0  0  0  0
   -1.8508   -1.2514    1.8644 H   0  0  0  0  0  0
    0.1149   -2.5843    0.0753 H   0  0  0  0  0  0
   -0.5162   -3.0434    1.6464 H   0  0  0  0  0  0
   -1.1991   -4.7626    0.1879 H   0  0  0  0  0  0
   -1.5854   -3.6506   -1.1287 H   0  0  0  0  0  0
   -3.6404   -4.5525   -0.0366 H   0  0  0  0  0  0
   -3.1238   -3.8939    1.5052 H   0  0  0  0  0  0
   -2.5363   -1.3069   -1.1229 H   0  0  0  0  0  0
   -4.3149   -0.6026    2.1696 H   0  0  0  0  0  0
   -5.6937    1.4124    2.5237 H   0  0  0  0  0  0
   -5.9108    3.1086    0.7273 H   0  0  0  0  0  0
   -4.7319    2.7829   -1.4328 H   0  0  0  0  0  0
   -3.3478    0.7805   -1.8041 H   0  0  0  0  0  0
    2.7444    0.4203    2.4789 H   0  0  0  0  0  0
    5.1749    0.8384    2.7231 H   0  0  0  0  0  0
   -3.7809   -2.4660    0.1079 N   0  3  0  0  0  0
   -4.3121   -2.5936   -0.7615 H   0  0  0  0  0  0
   -4.4279   -2.2533    0.8762 H   0  0  0  0  0  0
  1  2  1  0  0  0
  1 26  1  0  0  0
  1 27  1  0  0  0
  1 28  1  0  0  0
  2  3  1  0  0  0
  2 29  1  0  0  0
  2 30  1  0  0  0
  3  4  2  0  0  0
  3 24  1  0  0  0
  4  5  1  0  0  0
  4 31  1  0  0  0
  5  6  1  0  0  0
  5 22  2  0  0  0
  6  7  2  0  0  0
  6 21  1  0  0  0
  7  8  1  0  0  0
  8  9  1  0  0  0
  9 10  1  0  0  0
  9 21  2  0  0  0
 10 11  1  0  0  0
 10 14  1  0  0  0
 10 32  1  0  0  0
 11 12  1  0  0  0
 11 33  1  0  0  0
 11 34  1  0  0  0
 12 13  1  0  0  0
 12 35  1  0  0  0
 12 36  1  0  0  0
 13 37  1  0  0  0
 13 38  1  0  0  0
 13 47  1  0  0  0
 14 15  1  0  0  0
 14 39  1  0  0  0
 14 47  1  0  0  0
 15 16  2  0  0  0
 15 20  1  0  0  0
 16 17  1  0  0  0
 16 40  1  0  0  0
 17 18  2  0  0  0
 17 41  1  0  0  0
 18 19  1  0  0  0
 18 42  1  0  0  0
 19 20  2  0  0  0
 19 43  1  0  0  0
 20 44  1  0  0  0
 22 23  1  0  0  0
 22 45  1  0  0  0
 23 24  2  0  0  0
 23 46  1  0  0  0
 24 25  1  0  0  0
 47 48  1  0  0  0
 47 49  1  0  0  0
M  CHG  1  47   1
M  END
> <energy>
69.9119

> <i_ionizer_Ion_state_n>
1

> <i_ionizer_Tot_Q>
1

> <s_ionizer_Ion_centers>
47

> <s_ionizer_Ion_types>
N5

> <s_ionizer_Ion_ctrs_in>
14

> <r_ionizer_Ionization_penalty>
0.000148807

> <r_ionizer_Ionization_penalty_charging>
0.000148807

> <r_ionizer_Ionization_penalty_neutral>
0

$$$$
ZINC001211849883
                    3D
 Schrodinger Suite 2019-4.
 49 52  0  0  1  0            999 V2000
    4.5798   -3.7060   -0.1548 C   0  0  0  0  0  0
    4.1161   -2.9320    1.0677 C   0  0  0  0  0  0
    4.0916   -1.4465    0.8227 C   0  0  0  0  0  0
    2.9029   -0.8067    0.4420 C   0  0  0  0  0  0
    2.8550    0.5877    0.2544 C   0  0  0  0  0  0
    1.5961    1.2226   -0.1212 C   0  0  0  0  0  0
    1.3853    2.5508   -0.1470 N   0  0  0  0  0  0
    0.0604    2.6689   -0.5706 O   0  0  0  0  0  0
   -0.3985    1.4012   -0.7609 C   0  0  0  0  0  0
   -1.7805    1.2413   -1.3022 C   0  0  1  0  0  0
   -1.6715    0.8944   -2.7981 C   0  0  0  0  0  0
   -3.0185    0.4900   -3.3778 C   0  0  0  0  0  0
   -3.6239   -0.6590   -2.5801 C   0  0  0  0  0  0
   -2.5605    0.1485   -0.5211 C   0  0  1  0  0  0
   -2.8847    0.6224    0.8965 C   0  0  0  0  0  0
   -4.0260    1.4001    1.1655 C   0  0  0  0  0  0
   -4.3145    1.8265    2.4618 C   0  0  0  0  0  0
   -3.4580    1.5012    3.5100 C   0  0  0  0  0  0
   -2.3061    0.7576    3.2585 C   0  0  0  0  0  0
   -2.0248    0.3156    1.9633 C   0  0  0  0  0  0
    0.4985    0.4796   -0.4976 N   0  0  0  0  0  0
    4.0261    1.3355    0.4337 C   0  0  0  0  0  0
    5.2223    0.7023    0.7757 C   0  0  0  0  0  0
    5.2464   -0.6762    0.9633 C   0  0  0  0  0  0
    6.4083   -1.2639    1.2844 F   0  0  0  0  0  0
    3.9147   -3.5303   -1.0077 H   0  0  0  0  0  0
    4.5856   -4.7803    0.0581 H   0  0  0  0  0  0
    5.5937   -3.4138   -0.4501 H   0  0  0  0  0  0
    3.1160   -3.2750    1.3593 H   0  0  0  0  0  0
    4.7694   -3.1504    1.9206 H   0  0  0  0  0  0
    2.0005   -1.4009    0.3003 H   0  0  0  0  0  0
   -2.3142    2.1983   -1.2175 H   0  0  0  0  0  0
   -1.2699    1.7519   -3.3536 H   0  0  0  0  0  0
   -0.9641    0.0676   -2.9437 H   0  0  0  0  0  0
   -3.6982    1.3517   -3.3691 H   0  0  0  0  0  0
   -2.8943    0.1915   -4.4240 H   0  0  0  0  0  0
   -4.5967   -0.9260   -3.0069 H   0  0  0  0  0  0
   -2.9947   -1.5552   -2.6396 H   0  0  0  0  0  0
   -1.9427   -0.7570   -0.4390 H   0  0  0  0  0  0
   -4.7068    1.6713    0.3603 H   0  0  0  0  0  0
   -5.2083    2.4155    2.6523 H   0  0  0  0  0  0
   -3.6848    1.8257    4.5228 H   0  0  0  0  0  0
   -1.6240    0.5237    4.0701 H   0  0  0  0  0  0
   -1.1187   -0.2620    1.7918 H   0  0  0  0  0  0
    4.0188    2.4156    0.3031 H   0  0  0  0  0  0
    6.1371    1.2738    0.8995 H   0  0  0  0  0  0
   -3.8405   -0.2597   -1.1799 N   0  3  0  0  0  0
   -4.4949    0.5311   -1.1562 H   0  0  0  0  0  0
   -4.2425   -1.0522   -0.6656 H   0  0  0  0  0  0
  1  2  1  0  0  0
  1 26  1  0  0  0
  1 27  1  0  0  0
  1 28  1  0  0  0
  2  3  1  0  0  0
  2 29  1  0  0  0
  2 30  1  0  0  0
  3  4  2  0  0  0
  3 24  1  0  0  0
  4  5  1  0  0  0
  4 31  1  0  0  0
  5  6  1  0  0  0
  5 22  2  0  0  0
  6  7  2  0  0  0
  6 21  1  0  0  0
  7  8  1  0  0  0
  8  9  1  0  0  0
  9 10  1  0  0  0
  9 21  2  0  0  0
 10 11  1  0  0  0
 10 14  1  0  0  0
 10 32  1  0  0  0
 11 12  1  0  0  0
 11 33  1  0  0  0
 11 34  1  0  0  0
 12 13  1  0  0  0
 12 35  1  0  0  0
 12 36  1  0  0  0
 13 37  1  0  0  0
 13 38  1  0  0  0
 13 47  1  0  0  0
 14 15  1  0  0  0
 14 39  1  0  0  0
 14 47  1  0  0  0
 15 16  2  0  0  0
 15 20  1  0  0  0
 16 17  1  0  0  0
 16 40  1  0  0  0
 17 18  2  0  0  0
 17 41  1  0  0  0
 18 19  1  0  0  0
 18 42  1  0  0  0
 19 20  2  0  0  0
 19 43  1  0  0  0
 20 44  1  0  0  0
 22 23  1  0  0  0
 22 45  1  0  0  0
 23 24  2  0  0  0
 23 46  1  0  0  0
 24 25  1  0  0  0
 47 48  1  0  0  0
 47 49  1  0  0  0
M  CHG  1  47   1
M  END
> <energy>
57.4556

> <i_ionizer_Ion_state_n>
1

> <i_ionizer_Tot_Q>
1

> <s_ionizer_Ion_centers>
47

> <s_ionizer_Ion_types>
N5

> <s_ionizer_Ion_ctrs_in>
14

> <r_ionizer_Ionization_penalty>
0.000148807

> <r_ionizer_Ionization_penalty_charging>
0.000148807

> <r_ionizer_Ionization_penalty_neutral>
0

$$$$
ZINC001211849892
                    3D
 Schrodinger Suite 2019-4.
 43 46  0  0  1  0            999 V2000
   -3.8425   -1.9494   -0.1310 F   0  0  0  0  0  0
   -4.1904   -0.6656    0.0366 C   0  0  0  0  0  0
   -5.4413   -0.3876    0.5861 C   0  0  0  0  0  0
   -5.8432    0.9386    0.7561 C   0  0  0  0  0  0
   -4.9935    1.9745    0.3666 C   0  0  0  0  0  0
   -5.4935    3.6089    0.5770 Cl  0  0  0  0  0  0
   -3.7417    1.6957   -0.1838 C   0  0  0  0  0  0
   -3.3311    0.3637   -0.3516 C   0  0  0  0  0  0
   -2.0272    0.0666   -0.9053 C   0  0  0  0  0  0
   -1.5589    0.6149   -2.0360 N   0  0  0  0  0  0
   -0.2575    0.1150   -2.1256 O   0  0  0  0  0  0
   -0.0690   -0.6666   -1.0229 C   0  0  0  0  0  0
    1.2942   -1.2404   -0.8216 C   0  0  2  0  0  0
    1.2140   -2.7724   -0.7224 C   0  0  0  0  0  0
    2.5646   -3.3726   -0.3417 C   0  0  0  0  0  0
    3.1255   -2.7189    0.9176 C   0  0  0  0  0  0
    1.9448   -0.6511    0.4631 C   0  0  2  0  0  0
    2.0867    0.8671    0.3907 C   0  0  0  0  0  0
    1.3582    1.6716    1.2817 C   0  0  0  0  0  0
    1.4120    3.0639    1.1971 C   0  0  0  0  0  0
    2.2012    3.6707    0.2238 C   0  0  0  0  0  0
    2.9447    2.8877   -0.6574 C   0  0  0  0  0  0
    2.8899    1.4943   -0.5753 C   0  0  0  0  0  0
   -1.1289   -0.7455   -0.2540 N   0  0  0  0  0  0
   -6.0949   -1.2064    0.8716 H   0  0  0  0  0  0
   -6.8165    1.1563    1.1875 H   0  0  0  0  0  0
   -3.0811    2.5119   -0.4690 H   0  0  0  0  0  0
    1.9166   -0.9945   -1.6927 H   0  0  0  0  0  0
    0.4695   -3.0655    0.0294 H   0  0  0  0  0  0
    0.8734   -3.1970   -1.6754 H   0  0  0  0  0  0
    3.2679   -3.2458   -1.1729 H   0  0  0  0  0  0
    2.4548   -4.4522   -0.1816 H   0  0  0  0  0  0
    4.1133   -3.1351    1.1456 H   0  0  0  0  0  0
    2.4898   -2.9460    1.7833 H   0  0  0  0  0  0
    1.2847   -0.8755    1.3148 H   0  0  0  0  0  0
    0.7317    1.2148    2.0464 H   0  0  0  0  0  0
    0.8325    3.6709    1.8875 H   0  0  0  0  0  0
    2.2379    4.7556    0.1542 H   0  0  0  0  0  0
    3.5617    3.3637   -1.4128 H   0  0  0  0  0  0
    3.4764    0.9084   -1.2764 H   0  0  0  0  0  0
    3.2615   -1.2644    0.7701 N   0  3  0  0  0  0
    3.6240   -0.8678    1.6450 H   0  0  0  0  0  0
    3.9160   -1.0614    0.0054 H   0  0  0  0  0  0
  1  2  1  0  0  0
  2  3  2  0  0  0
  2  8  1  0  0  0
  3  4  1  0  0  0
  3 25  1  0  0  0
  4  5  2  0  0  0
  4 26  1  0  0  0
  5  6  1  0  0  0
  5  7  1  0  0  0
  7  8  2  0  0  0
  7 27  1  0  0  0
  8  9  1  0  0  0
  9 10  2  0  0  0
  9 24  1  0  0  0
 10 11  1  0  0  0
 11 12  1  0  0  0
 12 13  1  0  0  0
 12 24  2  0  0  0
 13 14  1  0  0  0
 13 17  1  0  0  0
 13 28  1  0  0  0
 14 15  1  0  0  0
 14 29  1  0  0  0
 14 30  1  0  0  0
 15 16  1  0  0  0
 15 31  1  0  0  0
 15 32  1  0  0  0
 16 33  1  0  0  0
 16 34  1  0  0  0
 16 41  1  0  0  0
 17 18  1  0  0  0
 17 35  1  0  0  0
 17 41  1  0  0  0
 18 19  2  0  0  0
 18 23  1  0  0  0
 19 20  1  0  0  0
 19 36  1  0  0  0
 20 21  2  0  0  0
 20 37  1  0  0  0
 21 22  1  0  0  0
 21 38  1  0  0  0
 22 23  2  0  0  0
 22 39  1  0  0  0
 23 40  1  0  0  0
 41 42  1  0  0  0
 41 43  1  0  0  0
M  CHG  1  41   1
M  END
> <energy>
50.2978

> <i_ionizer_Ion_state_n>
1

> <i_ionizer_Tot_Q>
1

> <s_ionizer_Ion_centers>
41

> <s_ionizer_Ion_types>
N5

> <s_ionizer_Ion_ctrs_in>
17

> <r_ionizer_Ionization_penalty>
0.000148807

> <r_ionizer_Ionization_penalty_charging>
0.000148807

> <r_ionizer_Ionization_penalty_neutral>
0

$$$$
ZINC001211849893
                    3D
 Schrodinger Suite 2019-4.
 43 46  0  0  1  0            999 V2000
   -2.9459    0.8710   -1.7499 F   0  0  0  0  0  0
   -3.7363    0.6802   -0.6834 C   0  0  0  0  0  0
   -5.0652    1.0970   -0.7817 C   0  0  0  0  0  0
   -5.9247    0.9380    0.3045 C   0  0  0  0  0  0
   -5.4479    0.3625    1.4803 C   0  0  0  0  0  0
   -6.5076    0.1603    2.8209 Cl  0  0  0  0  0  0
   -4.1193   -0.0544    1.5792 C   0  0  0  0  0  0
   -3.2434    0.1023    0.4909 C   0  0  0  0  0  0
   -1.8582   -0.3270    0.5949 C   0  0  0  0  0  0
   -1.2077   -0.4397    1.7662 N   0  0  0  0  0  0
    0.0656   -0.8608    1.4006 O   0  0  0  0  0  0
    0.0591   -0.9862    0.0439 C   0  0  0  0  0  0
    1.3190   -1.4307   -0.6248 C   0  0  2  0  0  0
    1.6900   -2.8746   -0.2408 C   0  0  0  0  0  0
    2.3921   -2.9713    1.1144 C   0  0  0  0  0  0
    3.5432   -1.9764    1.2265 C   0  0  0  0  0  0
    2.5162   -0.4708   -0.3787 C   0  0  1  0  0  0
    2.1955    0.9743   -0.7583 C   0  0  0  0  0  0
    2.0596    1.3075   -2.1185 C   0  0  0  0  0  0
    1.7283    2.6059   -2.5119 C   0  0  0  0  0  0
    1.5307    3.5953   -1.5532 C   0  0  0  0  0  0
    1.6643    3.2867   -0.2020 C   0  0  0  0  0  0
    1.9934    1.9872    0.1927 C   0  0  0  0  0  0
   -1.1014   -0.6919   -0.4943 N   0  0  0  0  0  0
   -5.4156    1.5493   -1.7050 H   0  0  0  0  0  0
   -6.9594    1.2609    0.2275 H   0  0  0  0  0  0
   -3.7667   -0.5048    2.5045 H   0  0  0  0  0  0
    1.1032   -1.4386   -1.7036 H   0  0  0  0  0  0
    2.3703   -3.2742   -1.0040 H   0  0  0  0  0  0
    0.8050   -3.5222   -0.2429 H   0  0  0  0  0  0
    2.7739   -3.9890    1.2569 H   0  0  0  0  0  0
    1.6714   -2.7952    1.9220 H   0  0  0  0  0  0
    4.3469   -2.2401    0.5283 H   0  0  0  0  0  0
    3.9730   -2.0310    2.2329 H   0  0  0  0  0  0
    3.3203   -0.7693   -1.0684 H   0  0  0  0  0  0
    2.2059    0.5530   -2.8881 H   0  0  0  0  0  0
    1.6209    2.8434   -3.5668 H   0  0  0  0  0  0
    1.2745    4.6064   -1.8572 H   0  0  0  0  0  0
    1.5110    4.0561    0.5495 H   0  0  0  0  0  0
    2.0893    1.7834    1.2556 H   0  0  0  0  0  0
    3.0971   -0.5967    0.9844 N   0  3  0  0  0  0
    2.3854   -0.3445    1.6801 H   0  0  0  0  0  0
    3.8996    0.0381    1.0701 H   0  0  0  0  0  0
  1  2  1  0  0  0
  2  3  2  0  0  0
  2  8  1  0  0  0
  3  4  1  0  0  0
  3 25  1  0  0  0
  4  5  2  0  0  0
  4 26  1  0  0  0
  5  6  1  0  0  0
  5  7  1  0  0  0
  7  8  2  0  0  0
  7 27  1  0  0  0
  8  9  1  0  0  0
  9 10  2  0  0  0
  9 24  1  0  0  0
 10 11  1  0  0  0
 11 12  1  0  0  0
 12 13  1  0  0  0
 12 24  2  0  0  0
 13 14  1  0  0  0
 13 17  1  0  0  0
 13 28  1  0  0  0
 14 15  1  0  0  0
 14 29  1  0  0  0
 14 30  1  0  0  0
 15 16  1  0  0  0
 15 31  1  0  0  0
 15 32  1  0  0  0
 16 33  1  0  0  0
 16 34  1  0  0  0
 16 41  1  0  0  0
 17 18  1  0  0  0
 17 35  1  0  0  0
 17 41  1  0  0  0
 18 19  2  0  0  0
 18 23  1  0  0  0
 19 20  1  0  0  0
 19 36  1  0  0  0
 20 21  2  0  0  0
 20 37  1  0  0  0
 21 22  1  0  0  0
 21 38  1  0  0  0
 22 23  2  0  0  0
 22 39  1  0  0  0
 23 40  1  0  0  0
 41 42  1  0  0  0
 41 43  1  0  0  0
M  CHG  1  41   1
M  END
> <energy>
53.4576

> <i_ionizer_Ion_state_n>
1

> <i_ionizer_Tot_Q>
1

> <s_ionizer_Ion_centers>
41

> <s_ionizer_Ion_types>
N5

> <s_ionizer_Ion_ctrs_in>
17

> <r_ionizer_Ionization_penalty>
0.000148807

> <r_ionizer_Ionization_penalty_charging>
0.000148807

> <r_ionizer_Ionization_penalty_neutral>
0

$$$$
ZINC001211849894
                    3D
 Schrodinger Suite 2019-4.
 43 46  0  0  1  0            999 V2000
   -4.0310   -1.3831   -2.5701 F   0  0  0  0  0  0
   -4.3647   -1.1660   -1.2890 C   0  0  0  0  0  0
   -5.5832   -1.6815   -0.8424 C   0  0  0  0  0  0
   -5.9804   -1.4889    0.4803 C   0  0  0  0  0  0
   -5.1583   -0.7722    1.3460 C   0  0  0  0  0  0
   -5.6509   -0.5143    2.9742 Cl  0  0  0  0  0  0
   -3.9371   -0.2621    0.9031 C   0  0  0  0  0  0
   -3.5198   -0.4600   -0.4260 C   0  0  0  0  0  0
   -2.2226    0.0481   -0.8482 C   0  0  0  0  0  0
   -1.7776    0.0858   -2.1135 N   0  0  0  0  0  0
   -0.4966    0.6187   -2.0059 O   0  0  0  0  0  0
   -0.2885    0.8599   -0.6822 C   0  0  0  0  0  0
    1.0174    1.4729   -0.2998 C   0  0  1  0  0  0
    0.7761    2.7294    0.5677 C   0  0  0  0  0  0
    0.9239    2.4168    2.0527 C   0  0  0  0  0  0
    2.3200    1.8679    2.3628 C   0  0  0  0  0  0
    1.9028    0.4246    0.4432 C   0  0  1  0  0  0
    2.5974   -0.6131   -0.4372 C   0  0  0  0  0  0
    2.9751   -0.3842   -1.7682 C   0  0  0  0  0  0
    3.6176   -1.3792   -2.5131 C   0  0  0  0  0  0
    3.9110   -2.6122   -1.9344 C   0  0  0  0  0  0
    3.5682   -2.8516   -0.6074 C   0  0  0  0  0  0
    2.9221   -1.8593    0.1329 C   0  0  0  0  0  0
   -1.3166    0.5413    0.0691 N   0  0  0  0  0  0
   -6.2127   -2.2317   -1.5346 H   0  0  0  0  0  0
   -6.9269   -1.8959    0.8261 H   0  0  0  0  0  0
   -3.3045    0.2886    1.5971 H   0  0  0  0  0  0
    1.5056    1.8350   -1.2110 H   0  0  0  0  0  0
   -0.2032    3.1815    0.3674 H   0  0  0  0  0  0
    1.5213    3.4912    0.3029 H   0  0  0  0  0  0
    0.7408    3.3183    2.6466 H   0  0  0  0  0  0
    0.1634    1.6852    2.3489 H   0  0  0  0  0  0
    2.9956    2.6974    2.6047 H   0  0  0  0  0  0
    2.2669    1.2471    3.2648 H   0  0  0  0  0  0
    1.2508   -0.1537    1.1163 H   0  0  0  0  0  0
    2.7904    0.5659   -2.2582 H   0  0  0  0  0  0
    3.8932   -1.1884   -3.5471 H   0  0  0  0  0  0
    4.4075   -3.3828   -2.5175 H   0  0  0  0  0  0
    3.8070   -3.8056   -0.1465 H   0  0  0  0  0  0
    2.6807   -2.0591    1.1756 H   0  0  0  0  0  0
    2.9396    1.0839    1.2775 N   0  3  0  0  0  0
    3.4986    1.7105    0.6866 H   0  0  0  0  0  0
    3.5488    0.3658    1.6868 H   0  0  0  0  0  0
  1  2  1  0  0  0
  2  3  2  0  0  0
  2  8  1  0  0  0
  3  4  1  0  0  0
  3 25  1  0  0  0
  4  5  2  0  0  0
  4 26  1  0  0  0
  5  6  1  0  0  0
  5  7  1  0  0  0
  7  8  2  0  0  0
  7 27  1  0  0  0
  8  9  1  0  0  0
  9 10  2  0  0  0
  9 24  1  0  0  0
 10 11  1  0  0  0
 11 12  1  0  0  0
 12 13  1  0  0  0
 12 24  2  0  0  0
 13 14  1  0  0  0
 13 17  1  0  0  0
 13 28  1  0  0  0
 14 15  1  0  0  0
 14 29  1  0  0  0
 14 30  1  0  0  0
 15 16  1  0  0  0
 15 31  1  0  0  0
 15 32  1  0  0  0
 16 33  1  0  0  0
 16 34  1  0  0  0
 16 41  1  0  0  0
 17 18  1  0  0  0
 17 35  1  0  0  0
 17 41  1  0  0  0
 18 19  2  0  0  0
 18 23  1  0  0  0
 19 20  1  0  0  0
 19 36  1  0  0  0
 20 21  2  0  0  0
 20 37  1  0  0  0
 21 22  1  0  0  0
 21 38  1  0  0  0
 22 23  2  0  0  0
 22 39  1  0  0  0
 23 40  1  0  0  0
 41 42  1  0  0  0
 41 43  1  0  0  0
M  CHG  1  41   1
M  END
> <energy>
56.009

> <i_ionizer_Ion_state_n>
1

> <i_ionizer_Tot_Q>
1

> <s_ionizer_Ion_centers>
41

> <s_ionizer_Ion_types>
N5

> <s_ionizer_Ion_ctrs_in>
17

> <r_ionizer_Ionization_penalty>
0.000148807

> <r_ionizer_Ionization_penalty_charging>
0.000148807

> <r_ionizer_Ionization_penalty_neutral>
0

$$$$
ZINC001211849895
                    3D
 Schrodinger Suite 2019-4.
 43 46  0  0  1  0            999 V2000
   -4.2597   -0.0418    0.6296 F   0  0  0  0  0  0
   -3.9623    1.2574    0.4787 C   0  0  0  0  0  0
   -4.9921    2.1353    0.1418 C   0  0  0  0  0  0
   -4.7191    3.4947   -0.0165 C   0  0  0  0  0  0
   -3.4235    3.9678    0.1855 C   0  0  0  0  0  0
   -3.0905    5.6447   -0.0020 Cl  0  0  0  0  0  0
   -2.3964    3.0936    0.5377 C   0  0  0  0  0  0
   -2.6617    1.7229    0.6776 C   0  0  0  0  0  0
   -1.5888    0.8130    1.0130 C   0  0  0  0  0  0
   -0.7389    1.0322    2.0295 N   0  0  0  0  0  0
    0.1541   -0.0315    1.9391 O   0  0  0  0  0  0
   -0.2255   -0.7747    0.8555 C   0  0  0  0  0  0
    0.6138   -1.9756    0.5654 C   0  0  1  0  0  0
   -0.2343   -3.1577    0.0680 C   0  0  0  0  0  0
   -0.5454   -3.0739   -1.4257 C   0  0  0  0  0  0
    0.7222   -2.8701   -2.2467 C   0  0  0  0  0  0
    1.8006   -1.7016   -0.3990 C   0  0  2  0  0  0
    2.6081   -0.4708   -0.0033 C   0  0  0  0  0  0
    3.5580   -0.5495    1.0268 C   0  0  0  0  0  0
    4.2697    0.5834    1.4274 C   0  0  0  0  0  0
    4.0409    1.8103    0.8061 C   0  0  0  0  0  0
    3.0976    1.9075   -0.2124 C   0  0  0  0  0  0
    2.3830    0.7781   -0.6104 C   0  0  0  0  0  0
   -1.3097   -0.3110    0.2718 N   0  0  0  0  0  0
   -5.9983    1.7518    0.0008 H   0  0  0  0  0  0
   -5.5181    4.1769   -0.2961 H   0  0  0  0  0  0
   -1.3881    3.4709    0.6904 H   0  0  0  0  0  0
    1.0433   -2.2852    1.5312 H   0  0  0  0  0  0
    0.3283   -4.0826    0.2455 H   0  0  0  0  0  0
   -1.1671   -3.2418    0.6374 H   0  0  0  0  0  0
   -1.2453   -2.2521   -1.6227 H   0  0  0  0  0  0
   -1.0449   -3.9947   -1.7456 H   0  0  0  0  0  0
    0.4558   -2.7770   -3.3053 H   0  0  0  0  0  0
    1.3823   -3.7413   -2.1644 H   0  0  0  0  0  0
    2.4887   -2.5543   -0.3039 H   0  0  0  0  0  0
    3.7431   -1.4937    1.5341 H   0  0  0  0  0  0
    4.9954    0.5125    2.2340 H   0  0  0  0  0  0
    4.5954    2.6904    1.1189 H   0  0  0  0  0  0
    2.9067    2.8644   -0.6910 H   0  0  0  0  0  0
    1.6284    0.8807   -1.3896 H   0  0  0  0  0  0
    1.4292   -1.6477   -1.8378 N   0  3  0  0  0  0
    2.2820   -1.5490   -2.4011 H   0  0  0  0  0  0
    0.8184   -0.8378   -1.9966 H   0  0  0  0  0  0
  1  2  1  0  0  0
  2  3  2  0  0  0
  2  8  1  0  0  0
  3  4  1  0  0  0
  3 25  1  0  0  0
  4  5  2  0  0  0
  4 26  1  0  0  0
  5  6  1  0  0  0
  5  7  1  0  0  0
  7  8  2  0  0  0
  7 27  1  0  0  0
  8  9  1  0  0  0
  9 10  2  0  0  0
  9 24  1  0  0  0
 10 11  1  0  0  0
 11 12  1  0  0  0
 12 13  1  0  0  0
 12 24  2  0  0  0
 13 14  1  0  0  0
 13 17  1  0  0  0
 13 28  1  0  0  0
 14 15  1  0  0  0
 14 29  1  0  0  0
 14 30  1  0  0  0
 15 16  1  0  0  0
 15 31  1  0  0  0
 15 32  1  0  0  0
 16 33  1  0  0  0
 16 34  1  0  0  0
 16 41  1  0  0  0
 17 18  1  0  0  0
 17 35  1  0  0  0
 17 41  1  0  0  0
 18 19  2  0  0  0
 18 23  1  0  0  0
 19 20  1  0  0  0
 19 36  1  0  0  0
 20 21  2  0  0  0
 20 37  1  0  0  0
 21 22  1  0  0  0
 21 38  1  0  0  0
 22 23  2  0  0  0
 22 39  1  0  0  0
 23 40  1  0  0  0
 41 42  1  0  0  0
 41 43  1  0  0  0
M  CHG  1  41   1
M  END
> <energy>
53.0817

> <i_ionizer_Ion_state_n>
1

> <i_ionizer_Tot_Q>
1

> <s_ionizer_Ion_centers>
41

> <s_ionizer_Ion_types>
N5

> <s_ionizer_Ion_ctrs_in>
17

> <r_ionizer_Ionization_penalty>
0.000148807

> <r_ionizer_Ionization_penalty_charging>
0.000148807

> <r_ionizer_Ionization_penalty_neutral>
0

$$$$
ZINC001211849902
                    3D
 Schrodinger Suite 2019-4.
 53 56  0  0  1  0            999 V2000
   -3.3922    1.1734   -1.6470 C   0  0  0  0  0  0
   -3.9313    0.4091   -0.4375 C   0  0  0  0  0  0
   -5.0548   -0.5256   -0.8754 C   0  0  0  0  0  0
   -2.8384   -0.3488    0.0834 O   0  0  0  0  0  0
   -2.8004   -0.7225    1.4016 C   0  0  0  0  0  0
   -3.8098   -0.4590    2.3347 C   0  0  0  0  0  0
   -3.6595   -0.8371    3.6752 C   0  0  0  0  0  0
   -2.5034   -1.4854    4.0993 C   0  0  0  0  0  0
   -1.4928   -1.7555    3.1799 C   0  0  0  0  0  0
   -1.6351   -1.3890    1.8305 C   0  0  0  0  0  0
   -0.5188   -1.6344    0.9303 C   0  0  0  0  0  0
   -0.6207   -2.1805   -0.2934 N   0  0  0  0  0  0
    0.6604   -2.0420   -0.8225 O   0  0  0  0  0  0
    1.4136   -1.4445    0.1452 C   0  0  0  0  0  0
    2.7687   -0.9511   -0.2402 C   0  0  1  0  0  0
    3.6308   -2.0657   -0.8654 C   0  0  0  0  0  0
    3.7285   -1.9188   -2.3819 C   0  0  0  0  0  0
    4.2609   -0.5398   -2.7888 C   0  0  0  0  0  0
    2.6070    0.2732   -1.1886 C   0  0  1  0  0  0
    2.1353    1.5048   -0.4210 C   0  0  0  0  0  0
    3.0215    2.2718    0.3520 C   0  0  0  0  0  0
    2.5644    3.3745    1.0753 C   0  0  0  0  0  0
    1.2134    3.7145    1.0507 C   0  0  0  0  0  0
    0.3191    2.9560    0.2994 C   0  0  0  0  0  0
    0.7757    1.8601   -0.4346 C   0  0  0  0  0  0
    0.7616   -1.2547    1.2674 N   0  0  0  0  0  0
   -2.9788    0.4881   -2.3955 H   0  0  0  0  0  0
   -4.1756    1.7751   -2.1178 H   0  0  0  0  0  0
   -2.5734    1.8362   -1.3465 H   0  0  0  0  0  0
   -4.2892    1.1509    0.2839 H   0  0  0  0  0  0
   -5.4543   -1.0932   -0.0287 H   0  0  0  0  0  0
   -4.6878   -1.2639   -1.5973 H   0  0  0  0  0  0
   -5.8764    0.0321   -1.3356 H   0  0  0  0  0  0
   -4.7291    0.0478    2.0609 H   0  0  0  0  0  0
   -4.4462   -0.6134    4.3918 H   0  0  0  0  0  0
   -2.3835   -1.7718    5.1410 H   0  0  0  0  0  0
   -0.5803   -2.2431    3.5173 H   0  0  0  0  0  0
    3.2725   -0.6415    0.6871 H   0  0  0  0  0  0
    4.6457   -1.9995   -0.4526 H   0  0  0  0  0  0
    3.2611   -3.0639   -0.6044 H   0  0  0  0  0  0
    4.3798   -2.6977   -2.7944 H   0  0  0  0  0  0
    2.7362   -2.0724   -2.8223 H   0  0  0  0  0  0
    5.3556   -0.5643   -2.8239 H   0  0  0  0  0  0
    3.9198   -0.3174   -3.8066 H   0  0  0  0  0  0
    1.8478    0.0636   -1.9573 H   0  0  0  0  0  0
    4.0758    2.0041    0.4000 H   0  0  0  0  0  0
    3.2625    3.9596    1.6673 H   0  0  0  0  0  0
    0.8566    4.5641    1.6260 H   0  0  0  0  0  0
   -0.7380    3.2061    0.2954 H   0  0  0  0  0  0
    0.0549    1.2679   -0.9957 H   0  0  0  0  0  0
    3.8796    0.5671   -1.8924 N   0  3  0  0  0  0
    4.6224    0.7062   -1.1974 H   0  0  0  0  0  0
    3.7654    1.4233   -2.4474 H   0  0  0  0  0  0
  1  2  1  0  0  0
  1 27  1  0  0  0
  1 28  1  0  0  0
  1 29  1  0  0  0
  2  3  1  0  0  0
  2  4  1  0  0  0
  2 30  1  0  0  0
  3 31  1  0  0  0
  3 32  1  0  0  0
  3 33  1  0  0  0
  4  5  1  0  0  0
  5  6  2  0  0  0
  5 10  1  0  0  0
  6  7  1  0  0  0
  6 34  1  0  0  0
  7  8  2  0  0  0
  7 35  1  0  0  0
  8  9  1  0  0  0
  8 36  1  0  0  0
  9 10  2  0  0  0
  9 37  1  0  0  0
 10 11  1  0  0  0
 11 12  2  0  0  0
 11 26  1  0  0  0
 12 13  1  0  0  0
 13 14  1  0  0  0
 14 15  1  0  0  0
 14 26  2  0  0  0
 15 16  1  0  0  0
 15 19  1  0  0  0
 15 38  1  0  0  0
 16 17  1  0  0  0
 16 39  1  0  0  0
 16 40  1  0  0  0
 17 18  1  0  0  0
 17 41  1  0  0  0
 17 42  1  0  0  0
 18 43  1  0  0  0
 18 44  1  0  0  0
 18 51  1  0  0  0
 19 20  1  0  0  0
 19 45  1  0  0  0
 19 51  1  0  0  0
 20 21  2  0  0  0
 20 25  1  0  0  0
 21 22  1  0  0  0
 21 46  1  0  0  0
 22 23  2  0  0  0
 22 47  1  0  0  0
 23 24  1  0  0  0
 23 48  1  0  0  0
 24 25  2  0  0  0
 24 49  1  0  0  0
 25 50  1  0  0  0
 51 52  1  0  0  0
 51 53  1  0  0  0
M  CHG  1  51   1
M  END
> <energy>
83.5422

> <i_ionizer_Ion_state_n>
1

> <i_ionizer_Tot_Q>
1

> <s_ionizer_Ion_centers>
51

> <s_ionizer_Ion_types>
N5

> <s_ionizer_Ion_ctrs_in>
19

> <r_ionizer_Ionization_penalty>
0.000148807

> <r_ionizer_Ionization_penalty_charging>
0.000148807

> <r_ionizer_Ionization_penalty_neutral>
0

$$$$
ZINC001211849903
                    3D
 Schrodinger Suite 2019-4.
 53 56  0  0  1  0            999 V2000
   -1.5723    1.6491   -1.6855 C   0  0  0  0  0  0
   -1.4694    1.0827   -3.0979 C   0  0  0  0  0  0
   -0.5536    1.9562   -3.9505 C   0  0  0  0  0  0
   -0.8940   -0.2349   -3.0663 O   0  0  0  0  0  0
   -1.8012   -1.2410   -2.8337 C   0  0  0  0  0  0
   -2.8352   -1.4504   -3.7602 C   0  0  0  0  0  0
   -3.7572   -2.4799   -3.5775 C   0  0  0  0  0  0
   -3.6292   -3.3361   -2.4910 C   0  0  0  0  0  0
   -2.5757   -3.1621   -1.5892 C   0  0  0  0  0  0
   -1.6398   -2.1174   -1.7443 C   0  0  0  0  0  0
   -0.5490   -1.9954   -0.7712 C   0  0  0  0  0  0
   -0.2310   -2.9670    0.1059 N   0  0  0  0  0  0
    0.8541   -2.4506    0.8069 O   0  0  0  0  0  0
    1.0834   -1.2048    0.3033 C   0  0  0  0  0  0
    2.2493   -0.4546    0.8525 C   0  0  1  0  0  0
    2.5568    0.8129    0.0380 C   0  0  0  0  0  0
    3.5687    1.7356    0.7198 C   0  0  0  0  0  0
    4.2044    1.1134    1.9563 C   0  0  0  0  0  0
    2.1713   -0.2095    2.3886 C   0  0  2  0  0  0
    0.8125    0.1798    2.9558 C   0  0  0  0  0  0
    0.2675   -0.5505    4.0265 C   0  0  0  0  0  0
   -0.9550   -0.1834    4.5945 C   0  0  0  0  0  0
   -1.6537    0.9124    4.0961 C   0  0  0  0  0  0
   -1.1239    1.6500    3.0404 C   0  0  0  0  0  0
    0.1022    1.2915    2.4779 C   0  0  0  0  0  0
    0.2542   -0.8833   -0.6613 N   0  0  0  0  0  0
   -1.9548    2.6740   -1.6998 H   0  0  0  0  0  0
   -0.5984    1.6510   -1.1872 H   0  0  0  0  0  0
   -2.2442    1.0429   -1.0701 H   0  0  0  0  0  0
   -2.4625    1.0864   -3.5609 H   0  0  0  0  0  0
   -0.9302    2.9825   -4.0087 H   0  0  0  0  0  0
    0.4648    1.9781   -3.5463 H   0  0  0  0  0  0
   -0.4829    1.5565   -4.9679 H   0  0  0  0  0  0
   -2.9195   -0.8210   -4.6413 H   0  0  0  0  0  0
   -4.5642   -2.6215   -4.2925 H   0  0  0  0  0  0
   -4.3373   -4.1485   -2.3482 H   0  0  0  0  0  0
   -2.4928   -3.8568   -0.7543 H   0  0  0  0  0  0
    3.1169   -1.1136    0.6960 H   0  0  0  0  0  0
    1.6500    1.3851   -0.1913 H   0  0  0  0  0  0
    2.9523    0.5128   -0.9407 H   0  0  0  0  0  0
    4.3481    2.0228    0.0054 H   0  0  0  0  0  0
    3.0607    2.6668    1.0032 H   0  0  0  0  0  0
    4.8720    1.8468    2.4207 H   0  0  0  0  0  0
    4.8208    0.2454    1.6959 H   0  0  0  0  0  0
    2.4296   -1.1822    2.8351 H   0  0  0  0  0  0
    0.7982   -1.4064    4.4381 H   0  0  0  0  0  0
   -1.3598   -0.7540    5.4256 H   0  0  0  0  0  0
   -2.6080    1.1948    4.5318 H   0  0  0  0  0  0
   -1.6594    2.5128    2.6550 H   0  0  0  0  0  0
    0.5044    1.9023    1.6763 H   0  0  0  0  0  0
    3.1650    0.7647    2.9366 N   0  3  0  0  0  0
    3.6149    0.3493    3.7608 H   0  0  0  0  0  0
    2.6705    1.6214    3.2120 H   0  0  0  0  0  0
  1  2  1  0  0  0
  1 27  1  0  0  0
  1 28  1  0  0  0
  1 29  1  0  0  0
  2  3  1  0  0  0
  2  4  1  0  0  0
  2 30  1  0  0  0
  3 31  1  0  0  0
  3 32  1  0  0  0
  3 33  1  0  0  0
  4  5  1  0  0  0
  5  6  2  0  0  0
  5 10  1  0  0  0
  6  7  1  0  0  0
  6 34  1  0  0  0
  7  8  2  0  0  0
  7 35  1  0  0  0
  8  9  1  0  0  0
  8 36  1  0  0  0
  9 10  2  0  0  0
  9 37  1  0  0  0
 10 11  1  0  0  0
 11 12  2  0  0  0
 11 26  1  0  0  0
 12 13  1  0  0  0
 13 14  1  0  0  0
 14 15  1  0  0  0
 14 26  2  0  0  0
 15 16  1  0  0  0
 15 19  1  0  0  0
 15 38  1  0  0  0
 16 17  1  0  0  0
 16 39  1  0  0  0
 16 40  1  0  0  0
 17 18  1  0  0  0
 17 41  1  0  0  0
 17 42  1  0  0  0
 18 43  1  0  0  0
 18 44  1  0  0  0
 18 51  1  0  0  0
 19 20  1  0  0  0
 19 45  1  0  0  0
 19 51  1  0  0  0
 20 21  2  0  0  0
 20 25  1  0  0  0
 21 22  1  0  0  0
 21 46  1  0  0  0
 22 23  2  0  0  0
 22 47  1  0  0  0
 23 24  1  0  0  0
 23 48  1  0  0  0
 24 25  2  0  0  0
 24 49  1  0  0  0
 25 50  1  0  0  0
 51 52  1  0  0  0
 51 53  1  0  0  0
M  CHG  1  51   1
M  END
> <energy>
86.5623

> <i_ionizer_Ion_state_n>
1

> <i_ionizer_Tot_Q>
1

> <s_ionizer_Ion_centers>
51

> <s_ionizer_Ion_types>
N5

> <s_ionizer_Ion_ctrs_in>
19

> <r_ionizer_Ionization_penalty>
0.000148807

> <r_ionizer_Ionization_penalty_charging>
0.000148807

> <r_ionizer_Ionization_penalty_neutral>
0

$$$$
ZINC001211849908
                    3D
 Schrodinger Suite 2019-4.
 53 56  0  0  1  0            999 V2000
   -3.0603   -0.4637   -1.8435 C   0  0  0  0  0  0
   -3.6998   -0.6468   -0.4696 C   0  0  0  0  0  0
   -4.7079    0.4662   -0.2042 C   0  0  0  0  0  0
   -2.6720   -0.5548    0.5292 O   0  0  0  0  0  0
   -2.4830   -1.7177    1.2321 C   0  0  0  0  0  0
   -3.5190   -2.1732    2.0627 C   0  0  0  0  0  0
   -3.3574   -3.3213    2.8343 C   0  0  0  0  0  0
   -2.1538   -4.0148    2.7893 C   0  0  0  0  0  0
   -1.1040   -3.5446    1.9927 C   0  0  0  0  0  0
   -1.2420   -2.3806    1.2095 C   0  0  0  0  0  0
   -0.0953   -1.8924    0.4384 C   0  0  0  0  0  0
    1.1313   -2.4512    0.4982 N   0  0  0  0  0  0
    1.9237   -1.6153   -0.2829 O   0  0  0  0  0  0
    1.1010   -0.6386   -0.7579 C   0  0  0  0  0  0
    1.7163    0.4752   -1.5342 C   0  0  2  0  0  0
    2.3254   -0.0399   -2.8526 C   0  0  0  0  0  0
    3.5753    0.7349   -3.2722 C   0  0  0  0  0  0
    3.4938    2.1998   -2.8631 C   0  0  0  0  0  0
    2.7690    1.2471   -0.6964 C   0  0  2  0  0  0
    2.2182    1.7263    0.6407 C   0  0  0  0  0  0
    1.2541    2.7448    0.7064 C   0  0  0  0  0  0
    0.7119    3.1326    1.9322 C   0  0  0  0  0  0
    1.1244    2.5076    3.1069 C   0  0  0  0  0  0
    2.0829    1.4986    3.0586 C   0  0  0  0  0  0
    2.6285    1.1104    1.8342 C   0  0  0  0  0  0
   -0.1471   -0.7966   -0.3934 N   0  0  0  0  0  0
   -2.3663   -1.2850   -2.0543 H   0  0  0  0  0  0
   -2.4783    0.4638   -1.8887 H   0  0  0  0  0  0
   -3.8170   -0.4428   -2.6341 H   0  0  0  0  0  0
   -4.2161   -1.6161   -0.4535 H   0  0  0  0  0  0
   -4.2246    1.4483   -0.2440 H   0  0  0  0  0  0
   -5.5225    0.4465   -0.9349 H   0  0  0  0  0  0
   -5.1357    0.3684    0.7994 H   0  0  0  0  0  0
   -4.4537   -1.6231    2.1215 H   0  0  0  0  0  0
   -4.1652   -3.6671    3.4744 H   0  0  0  0  0  0
   -2.0191   -4.9113    3.3903 H   0  0  0  0  0  0
   -0.1641   -4.0958    2.0015 H   0  0  0  0  0  0
    0.9038    1.1696   -1.7969 H   0  0  0  0  0  0
    1.5650    0.0422   -3.6413 H   0  0  0  0  0  0
    2.5829   -1.1053   -2.7980 H   0  0  0  0  0  0
    4.4612    0.2761   -2.8147 H   0  0  0  0  0  0
    3.7101    0.6528   -4.3566 H   0  0  0  0  0  0
    4.3876    2.7338   -3.2047 H   0  0  0  0  0  0
    2.6424    2.6687   -3.3706 H   0  0  0  0  0  0
    3.6048    0.5629   -0.4872 H   0  0  0  0  0  0
    0.9169    3.2375   -0.2036 H   0  0  0  0  0  0
   -0.0407    3.9158    1.9675 H   0  0  0  0  0  0
    0.6938    2.8035    4.0594 H   0  0  0  0  0  0
    2.3972    1.0036    3.9732 H   0  0  0  0  0  0
    3.3616    0.3068    1.8182 H   0  0  0  0  0  0
    3.3493    2.4306   -1.4093 N   0  3  0  0  0  0
    4.2753    2.6320   -1.0141 H   0  0  0  0  0  0
    2.7321    3.2382   -1.2638 H   0  0  0  0  0  0
  1  2  1  0  0  0
  1 27  1  0  0  0
  1 28  1  0  0  0
  1 29  1  0  0  0
  2  3  1  0  0  0
  2  4  1  0  0  0
  2 30  1  0  0  0
  3 31  1  0  0  0
  3 32  1  0  0  0
  3 33  1  0  0  0
  4  5  1  0  0  0
  5  6  2  0  0  0
  5 10  1  0  0  0
  6  7  1  0  0  0
  6 34  1  0  0  0
  7  8  2  0  0  0
  7 35  1  0  0  0
  8  9  1  0  0  0
  8 36  1  0  0  0
  9 10  2  0  0  0
  9 37  1  0  0  0
 10 11  1  0  0  0
 11 12  2  0  0  0
 11 26  1  0  0  0
 12 13  1  0  0  0
 13 14  1  0  0  0
 14 15  1  0  0  0
 14 26  2  0  0  0
 15 16  1  0  0  0
 15 19  1  0  0  0
 15 38  1  0  0  0
 16 17  1  0  0  0
 16 39  1  0  0  0
 16 40  1  0  0  0
 17 18  1  0  0  0
 17 41  1  0  0  0
 17 42  1  0  0  0
 18 43  1  0  0  0
 18 44  1  0  0  0
 18 51  1  0  0  0
 19 20  1  0  0  0
 19 45  1  0  0  0
 19 51  1  0  0  0
 20 21  2  0  0  0
 20 25  1  0  0  0
 21 22  1  0  0  0
 21 46  1  0  0  0
 22 23  2  0  0  0
 22 47  1  0  0  0
 23 24  1  0  0  0
 23 48  1  0  0  0
 24 25  2  0  0  0
 24 49  1  0  0  0
 25 50  1  0  0  0
 51 52  1  0  0  0
 51 53  1  0  0  0
M  CHG  1  51   1
M  END
> <energy>
84.4929

> <i_ionizer_Ion_state_n>
1

> <i_ionizer_Tot_Q>
1

> <s_ionizer_Ion_centers>
51

> <s_ionizer_Ion_types>
N5

> <s_ionizer_Ion_ctrs_in>
19

> <r_ionizer_Ionization_penalty>
0.000148807

> <r_ionizer_Ionization_penalty_charging>
0.000148807

> <r_ionizer_Ionization_penalty_neutral>
0

$$$$
ZINC001211849911
                    3D
 Schrodinger Suite 2019-4.
 53 56  0  0  1  0            999 V2000
   -2.4689    2.1943   -0.7100 C   0  0  0  0  0  0
   -2.6009    0.7991   -1.3091 C   0  0  0  0  0  0
   -3.3997    0.8793   -2.6096 C   0  0  0  0  0  0
   -3.3004    0.0082   -0.3325 O   0  0  0  0  0  0
   -2.9434   -1.3143   -0.3674 C   0  0  0  0  0  0
   -3.7464   -2.1650   -1.1393 C   0  0  0  0  0  0
   -3.5026   -3.5380   -1.1682 C   0  0  0  0  0  0
   -2.4695   -4.0717   -0.4054 C   0  0  0  0  0  0
   -1.6915   -3.2316    0.3943 C   0  0  0  0  0  0
   -1.9211   -1.8423    0.4308 C   0  0  0  0  0  0
   -1.0743   -1.0368    1.2993 C   0  0  0  0  0  0
   -0.8358   -1.3571    2.5836 N   0  0  0  0  0  0
    0.2080   -0.5146    2.9490 O   0  0  0  0  0  0
    0.5120    0.2277    1.8464 C   0  0  0  0  0  0
    1.7441    1.0725    1.9413 C   0  0  2  0  0  0
    1.4266    2.4855    2.4580 C   0  0  0  0  0  0
    0.8174    3.3841    1.3832 C   0  0  0  0  0  0
    1.6174    3.3485    0.0827 C   0  0  0  0  0  0
    2.5138    1.1557    0.5936 C   0  0  1  0  0  0
    2.9231   -0.2173    0.0585 C   0  0  0  0  0  0
    2.2341   -0.8660   -0.9804 C   0  0  0  0  0  0
    2.6179   -2.1380   -1.4149 C   0  0  0  0  0  0
    3.6999   -2.7808   -0.8215 C   0  0  0  0  0  0
    4.3949   -2.1568    0.2122 C   0  0  0  0  0  0
    4.0075   -0.8871    0.6500 C   0  0  0  0  0  0
   -0.2919   -0.0013    0.8300 N   0  0  0  0  0  0
   -1.8749    2.8513   -1.3519 H   0  0  0  0  0  0
   -2.0050    2.1424    0.2776 H   0  0  0  0  0  0
   -3.4536    2.6492   -0.5610 H   0  0  0  0  0  0
   -1.5982    0.4029   -1.5131 H   0  0  0  0  0  0
   -3.4084   -0.0865   -3.1237 H   0  0  0  0  0  0
   -4.4445    1.1451   -2.4121 H   0  0  0  0  0  0
   -2.9714    1.6200   -3.2932 H   0  0  0  0  0  0
   -4.5755   -1.7578   -1.7110 H   0  0  0  0  0  0
   -4.1276   -4.1903   -1.7727 H   0  0  0  0  0  0
   -2.2765   -5.1416   -0.4158 H   0  0  0  0  0  0
   -0.8948   -3.6660    0.9962 H   0  0  0  0  0  0
    2.4027    0.5994    2.6840 H   0  0  0  0  0  0
    2.3597    2.9510    2.8019 H   0  0  0  0  0  0
    0.7601    2.4453    3.3273 H   0  0  0  0  0  0
   -0.2128    3.0722    1.1891 H   0  0  0  0  0  0
    0.7671    4.4148    1.7536 H   0  0  0  0  0  0
    1.0932    3.9297   -0.6841 H   0  0  0  0  0  0
    2.5940    3.8281    0.2222 H   0  0  0  0  0  0
    3.4647    1.6755    0.7862 H   0  0  0  0  0  0
    1.3819   -0.3933   -1.4619 H   0  0  0  0  0  0
    2.0665   -2.6229   -2.2160 H   0  0  0  0  0  0
    4.0007   -3.7669   -1.1639 H   0  0  0  0  0  0
    5.2374   -2.6587    0.6786 H   0  0  0  0  0  0
    4.5656   -0.4221    1.4600 H   0  0  0  0  0  0
    1.7994    1.9791   -0.4170 N   0  3  0  0  0  0
    0.8804    1.5621   -0.6063 H   0  0  0  0  0  0
    2.3489    2.0045   -1.2840 H   0  0  0  0  0  0
  1  2  1  0  0  0
  1 27  1  0  0  0
  1 28  1  0  0  0
  1 29  1  0  0  0
  2  3  1  0  0  0
  2  4  1  0  0  0
  2 30  1  0  0  0
  3 31  1  0  0  0
  3 32  1  0  0  0
  3 33  1  0  0  0
  4  5  1  0  0  0
  5  6  2  0  0  0
  5 10  1  0  0  0
  6  7  1  0  0  0
  6 34  1  0  0  0
  7  8  2  0  0  0
  7 35  1  0  0  0
  8  9  1  0  0  0
  8 36  1  0  0  0
  9 10  2  0  0  0
  9 37  1  0  0  0
 10 11  1  0  0  0
 11 12  2  0  0  0
 11 26  1  0  0  0
 12 13  1  0  0  0
 13 14  1  0  0  0
 14 15  1  0  0  0
 14 26  2  0  0  0
 15 16  1  0  0  0
 15 19  1  0  0  0
 15 38  1  0  0  0
 16 17  1  0  0  0
 16 39  1  0  0  0
 16 40  1  0  0  0
 17 18  1  0  0  0
 17 41  1  0  0  0
 17 42  1  0  0  0
 18 43  1  0  0  0
 18 44  1  0  0  0
 18 51  1  0  0  0
 19 20  1  0  0  0
 19 45  1  0  0  0
 19 51  1  0  0  0
 20 21  2  0  0  0
 20 25  1  0  0  0
 21 22  1  0  0  0
 21 46  1  0  0  0
 22 23  2  0  0  0
 22 47  1  0  0  0
 23 24  1  0  0  0
 23 48  1  0  0  0
 24 25  2  0  0  0
 24 49  1  0  0  0
 25 50  1  0  0  0
 51 52  1  0  0  0
 51 53  1  0  0  0
M  CHG  1  51   1
M  END
> <energy>
83.3998

> <i_ionizer_Ion_state_n>
1

> <i_ionizer_Tot_Q>
1

> <s_ionizer_Ion_centers>
51

> <s_ionizer_Ion_types>
N5

> <s_ionizer_Ion_ctrs_in>
19

> <r_ionizer_Ionization_penalty>
0.000148807

> <r_ionizer_Ionization_penalty_charging>
0.000148807

> <r_ionizer_Ionization_penalty_neutral>
0

$$$$
ZINC001211849944
                    3D
 Schrodinger Suite 2019-4.
 46 49  0  0  1  0            999 V2000
    4.1049   -3.2598   -1.1307 C   0  0  0  0  0  0
    4.1855   -1.7622   -1.0539 C   0  0  0  0  0  0
    3.0246   -1.0262   -0.7615 C   0  0  0  0  0  0
    3.0579    0.3725   -0.6489 C   0  0  0  0  0  0
    1.8374    1.0935   -0.3236 C   0  0  0  0  0  0
    1.7985    2.1942    0.4436 N   0  0  0  0  0  0
    0.4385    2.4654    0.5565 O   0  0  0  0  0  0
   -0.2136    1.5249   -0.1880 C   0  0  0  0  0  0
   -1.7084    1.5904   -0.2354 C   0  0  2  0  0  0
   -2.1909    3.0532   -0.2451 C   0  0  0  0  0  0
   -3.7071    3.1421   -0.1370 C   0  0  0  0  0  0
   -4.2046    2.3824    1.0877 C   0  0  0  0  0  0
   -2.3393    0.8037    0.9471 C   0  0  2  0  0  0
   -2.0407   -0.6921    0.8644 C   0  0  0  0  0  0
   -2.6282   -1.4920   -0.1314 C   0  0  0  0  0  0
   -2.3483   -2.8566   -0.2109 C   0  0  0  0  0  0
   -1.4749   -3.4433    0.7014 C   0  0  0  0  0  0
   -0.8822   -2.6651    1.6938 C   0  0  0  0  0  0
   -1.1632   -1.2986    1.7769 C   0  0  0  0  0  0
    0.6010    0.6627   -0.7506 N   0  0  0  0  0  0
    4.2702    1.0442   -0.8434 C   0  0  0  0  0  0
    5.4278    0.3264   -1.1577 C   0  0  0  0  0  0
    5.3865   -1.0676   -1.2609 C   0  0  0  0  0  0
    6.8539   -1.8945   -1.6412 Cl  0  0  0  0  0  0
    4.3634   -3.6040   -2.1372 H   0  0  0  0  0  0
    3.0942   -3.6181   -0.9064 H   0  0  0  0  0  0
    4.7808   -3.7148   -0.3988 H   0  0  0  0  0  0
    2.0788   -1.5460   -0.6059 H   0  0  0  0  0  0
   -2.0259    1.1356   -1.1837 H   0  0  0  0  0  0
   -1.7542    3.6038    0.5979 H   0  0  0  0  0  0
   -1.8510    3.5567   -1.1575 H   0  0  0  0  0  0
   -4.1670    2.7346   -1.0459 H   0  0  0  0  0  0
   -4.0103    4.1931   -0.0705 H   0  0  0  0  0  0
   -3.8290    2.8421    2.0098 H   0  0  0  0  0  0
   -5.2979    2.4383    1.1245 H   0  0  0  0  0  0
   -1.9160    1.1815    1.8887 H   0  0  0  0  0  0
   -3.3174   -1.0508   -0.8487 H   0  0  0  0  0  0
   -2.8139   -3.4606   -0.9852 H   0  0  0  0  0  0
   -1.2572   -4.5067    0.6397 H   0  0  0  0  0  0
   -0.1991   -3.1227    2.4052 H   0  0  0  0  0  0
   -0.6842   -0.7113    2.5566 H   0  0  0  0  0  0
    4.3206    2.1285   -0.7661 H   0  0  0  0  0  0
    6.3616    0.8605   -1.3181 H   0  0  0  0  0  0
   -3.8217    0.9642    1.0170 N   0  3  0  0  0  0
   -4.1712    0.4817    1.8533 H   0  0  0  0  0  0
   -4.2431    0.5458    0.1794 H   0  0  0  0  0  0
  1  2  1  0  0  0
  1 25  1  0  0  0
  1 26  1  0  0  0
  1 27  1  0  0  0
  2  3  2  0  0  0
  2 23  1  0  0  0
  3  4  1  0  0  0
  3 28  1  0  0  0
  4  5  1  0  0  0
  4 21  2  0  0  0
  5  6  2  0  0  0
  5 20  1  0  0  0
  6  7  1  0  0  0
  7  8  1  0  0  0
  8  9  1  0  0  0
  8 20  2  0  0  0
  9 10  1  0  0  0
  9 13  1  0  0  0
  9 29  1  0  0  0
 10 11  1  0  0  0
 10 30  1  0  0  0
 10 31  1  0  0  0
 11 12  1  0  0  0
 11 32  1  0  0  0
 11 33  1  0  0  0
 12 34  1  0  0  0
 12 35  1  0  0  0
 12 44  1  0  0  0
 13 14  1  0  0  0
 13 36  1  0  0  0
 13 44  1  0  0  0
 14 15  2  0  0  0
 14 19  1  0  0  0
 15 16  1  0  0  0
 15 37  1  0  0  0
 16 17  2  0  0  0
 16 38  1  0  0  0
 17 18  1  0  0  0
 17 39  1  0  0  0
 18 19  2  0  0  0
 18 40  1  0  0  0
 19 41  1  0  0  0
 21 22  1  0  0  0
 21 42  1  0  0  0
 22 23  2  0  0  0
 22 43  1  0  0  0
 23 24  1  0  0  0
 44 45  1  0  0  0
 44 46  1  0  0  0
M  CHG  1  44   1
M  END
> <energy>
62.9161

> <i_ionizer_Ion_state_n>
1

> <i_ionizer_Tot_Q>
1

> <s_ionizer_Ion_centers>
44

> <s_ionizer_Ion_types>
N5

> <s_ionizer_Ion_ctrs_in>
13

> <r_ionizer_Ionization_penalty>
0.000148807

> <r_ionizer_Ionization_penalty_charging>
0.000148807

> <r_ionizer_Ionization_penalty_neutral>
0

$$$$
ZINC001211849946
                    3D
 Schrodinger Suite 2019-4.
 46 49  0  0  1  0            999 V2000
    5.1395    2.6081   -0.5905 C   0  0  0  0  0  0
    4.5557    1.8828    0.5879 C   0  0  0  0  0  0
    3.3457    1.1811    0.4383 C   0  0  0  0  0  0
    2.7731    0.4717    1.5083 C   0  0  0  0  0  0
    1.5394   -0.2821    1.3119 C   0  0  0  0  0  0
    0.8475   -0.8727    2.3011 N   0  0  0  0  0  0
   -0.2270   -1.4682    1.6445 O   0  0  0  0  0  0
   -0.0777   -1.1839    0.3199 C   0  0  0  0  0  0
   -1.1090   -1.7017   -0.6216 C   0  0  1  0  0  0
   -1.1423   -3.2386   -0.6125 C   0  0  0  0  0  0
   -2.3027   -3.8023   -1.4399 C   0  0  0  0  0  0
   -3.1499   -2.7176   -2.0960 C   0  0  0  0  0  0
   -2.5258   -1.1453   -0.3025 C   0  0  1  0  0  0
   -2.6382    0.3716   -0.3596 C   0  0  0  0  0  0
   -2.1472    1.1093   -1.4500 C   0  0  0  0  0  0
   -2.2853    2.4986   -1.4953 C   0  0  0  0  0  0
   -2.9356    3.1689   -0.4624 C   0  0  0  0  0  0
   -3.4460    2.4523    0.6158 C   0  0  0  0  0  0
   -3.3028    1.0637    0.6665 C   0  0  0  0  0  0
    0.9934   -0.4721    0.0602 N   0  0  0  0  0  0
    3.4205    0.4852    2.7495 C   0  0  0  0  0  0
    4.6254    1.1736    2.9111 C   0  0  0  0  0  0
    5.1928    1.8614    1.8369 C   0  0  0  0  0  0
    6.7074    2.6535    2.0912 Cl  0  0  0  0  0  0
    5.2925    3.6654   -0.3518 H   0  0  0  0  0  0
    4.4761    2.5634   -1.4609 H   0  0  0  0  0  0
    6.0929    2.1529   -0.8764 H   0  0  0  0  0  0
    2.8425    1.1809   -0.5286 H   0  0  0  0  0  0
   -0.7977   -1.3894   -1.6276 H   0  0  0  0  0  0
   -1.2376   -3.6138    0.4160 H   0  0  0  0  0  0
   -0.1897   -3.6391   -0.9859 H   0  0  0  0  0  0
   -2.9360   -4.4278   -0.7974 H   0  0  0  0  0  0
   -1.9070   -4.4656   -2.2201 H   0  0  0  0  0  0
   -4.0237   -3.1707   -2.5773 H   0  0  0  0  0  0
   -2.5844   -2.2307   -2.9013 H   0  0  0  0  0  0
   -2.7522   -1.4532    0.7285 H   0  0  0  0  0  0
   -1.6694    0.6069   -2.2860 H   0  0  0  0  0  0
   -1.8970    3.0529   -2.3454 H   0  0  0  0  0  0
   -3.0449    4.2492   -0.5019 H   0  0  0  0  0  0
   -3.9649    2.9747    1.4155 H   0  0  0  0  0  0
   -3.7317    0.5230    1.5077 H   0  0  0  0  0  0
    3.0022   -0.0525    3.5991 H   0  0  0  0  0  0
    5.1224    1.1596    3.8781 H   0  0  0  0  0  0
   -3.6320   -1.7025   -1.1434 N   0  3  0  0  0  0
   -4.0661   -0.9351   -1.6697 H   0  0  0  0  0  0
   -4.3312   -2.1333   -0.5271 H   0  0  0  0  0  0
  1  2  1  0  0  0
  1 25  1  0  0  0
  1 26  1  0  0  0
  1 27  1  0  0  0
  2  3  2  0  0  0
  2 23  1  0  0  0
  3  4  1  0  0  0
  3 28  1  0  0  0
  4  5  1  0  0  0
  4 21  2  0  0  0
  5  6  2  0  0  0
  5 20  1  0  0  0
  6  7  1  0  0  0
  7  8  1  0  0  0
  8  9  1  0  0  0
  8 20  2  0  0  0
  9 10  1  0  0  0
  9 13  1  0  0  0
  9 29  1  0  0  0
 10 11  1  0  0  0
 10 30  1  0  0  0
 10 31  1  0  0  0
 11 12  1  0  0  0
 11 32  1  0  0  0
 11 33  1  0  0  0
 12 34  1  0  0  0
 12 35  1  0  0  0
 12 44  1  0  0  0
 13 14  1  0  0  0
 13 36  1  0  0  0
 13 44  1  0  0  0
 14 15  2  0  0  0
 14 19  1  0  0  0
 15 16  1  0  0  0
 15 37  1  0  0  0
 16 17  2  0  0  0
 16 38  1  0  0  0
 17 18  1  0  0  0
 17 39  1  0  0  0
 18 19  2  0  0  0
 18 40  1  0  0  0
 19 41  1  0  0  0
 21 22  1  0  0  0
 21 42  1  0  0  0
 22 23  2  0  0  0
 22 43  1  0  0  0
 23 24  1  0  0  0
 44 45  1  0  0  0
 44 46  1  0  0  0
M  CHG  1  44   1
M  END
> <energy>
70.5028

> <i_ionizer_Ion_state_n>
1

> <i_ionizer_Tot_Q>
1

> <s_ionizer_Ion_centers>
44

> <s_ionizer_Ion_types>
N5

> <s_ionizer_Ion_ctrs_in>
13

> <r_ionizer_Ionization_penalty>
0.000148807

> <r_ionizer_Ionization_penalty_charging>
0.000148807

> <r_ionizer_Ionization_penalty_neutral>
0

$$$$
ZINC001211849947
                    3D
 Schrodinger Suite 2019-4.
 46 49  0  0  1  0            999 V2000
    4.9367    0.4217   -1.8738 C   0  0  0  0  0  0
    4.3709    0.6556   -0.5011 C   0  0  0  0  0  0
    3.1160    0.1105   -0.1699 C   0  0  0  0  0  0
    2.5331    0.3109    1.0937 C   0  0  0  0  0  0
    1.2118   -0.2389    1.3905 C   0  0  0  0  0  0
    0.5910   -0.1249    2.5747 N   0  0  0  0  0  0
   -0.6587   -0.7036    2.3536 O   0  0  0  0  0  0
   -0.6688   -1.1224    1.0540 C   0  0  0  0  0  0
   -1.9336   -1.7513    0.5608 C   0  0  2  0  0  0
   -1.6541   -3.0899   -0.1394 C   0  0  0  0  0  0
   -1.0683   -2.9290   -1.5471 C   0  0  0  0  0  0
   -1.2442   -1.5346   -2.1473 C   0  0  0  0  0  0
   -2.7995   -0.8528   -0.3753 C   0  0  1  0  0  0
   -2.9136    0.5971    0.0762 C   0  0  0  0  0  0
   -3.9910    1.0144    0.8748 C   0  0  0  0  0  0
   -4.0822    2.3383    1.3114 C   0  0  0  0  0  0
   -3.0934    3.2592    0.9704 C   0  0  0  0  0  0
   -2.0191    2.8626    0.1799 C   0  0  0  0  0  0
   -1.9357    1.5443   -0.2699 C   0  0  0  0  0  0
    0.4701   -0.9029    0.4371 N   0  0  0  0  0  0
    3.2290    1.0766    2.0378 C   0  0  0  0  0  0
    4.4716    1.6360    1.7200 C   0  0  0  0  0  0
    5.0362    1.4324    0.4583 C   0  0  0  0  0  0
    6.5618    2.1712    0.1291 Cl  0  0  0  0  0  0
    5.9614    0.0419   -1.8147 H   0  0  0  0  0  0
    4.3540   -0.3250   -2.4235 H   0  0  0  0  0  0
    4.9209    1.3520   -2.4500 H   0  0  0  0  0  0
    2.5771   -0.4731   -0.9170 H   0  0  0  0  0  0
   -2.5426   -1.9749    1.4512 H   0  0  0  0  0  0
   -2.6036   -3.6338   -0.2312 H   0  0  0  0  0  0
   -0.9988   -3.7295    0.4656 H   0  0  0  0  0  0
    0.0023   -3.1670   -1.5258 H   0  0  0  0  0  0
   -1.5333   -3.6724   -2.2064 H   0  0  0  0  0  0
   -1.1399   -1.5974   -3.2367 H   0  0  0  0  0  0
   -0.4396   -0.8652   -1.8312 H   0  0  0  0  0  0
   -3.8164   -1.2651   -0.2882 H   0  0  0  0  0  0
   -4.7750    0.3146    1.1557 H   0  0  0  0  0  0
   -4.9216    2.6521    1.9265 H   0  0  0  0  0  0
   -3.1602    4.2864    1.3167 H   0  0  0  0  0  0
   -1.2429    3.5742   -0.0888 H   0  0  0  0  0  0
   -1.0908    1.2580   -0.8900 H   0  0  0  0  0  0
    2.8057    1.2594    3.0238 H   0  0  0  0  0  0
    4.9923    2.2339    2.4646 H   0  0  0  0  0  0
   -2.5561   -0.9412   -1.8498 N   0  3  0  0  0  0
   -2.5932    0.0032   -2.2510 H   0  0  0  0  0  0
   -3.2885   -1.5223   -2.2743 H   0  0  0  0  0  0
  1  2  1  0  0  0
  1 25  1  0  0  0
  1 26  1  0  0  0
  1 27  1  0  0  0
  2  3  2  0  0  0
  2 23  1  0  0  0
  3  4  1  0  0  0
  3 28  1  0  0  0
  4  5  1  0  0  0
  4 21  2  0  0  0
  5  6  2  0  0  0
  5 20  1  0  0  0
  6  7  1  0  0  0
  7  8  1  0  0  0
  8  9  1  0  0  0
  8 20  2  0  0  0
  9 10  1  0  0  0
  9 13  1  0  0  0
  9 29  1  0  0  0
 10 11  1  0  0  0
 10 30  1  0  0  0
 10 31  1  0  0  0
 11 12  1  0  0  0
 11 32  1  0  0  0
 11 33  1  0  0  0
 12 34  1  0  0  0
 12 35  1  0  0  0
 12 44  1  0  0  0
 13 14  1  0  0  0
 13 36  1  0  0  0
 13 44  1  0  0  0
 14 15  2  0  0  0
 14 19  1  0  0  0
 15 16  1  0  0  0
 15 37  1  0  0  0
 16 17  2  0  0  0
 16 38  1  0  0  0
 17 18  1  0  0  0
 17 39  1  0  0  0
 18 19  2  0  0  0
 18 40  1  0  0  0
 19 41  1  0  0  0
 21 22  1  0  0  0
 21 42  1  0  0  0
 22 23  2  0  0  0
 22 43  1  0  0  0
 23 24  1  0  0  0
 44 45  1  0  0  0
 44 46  1  0  0  0
M  CHG  1  44   1
M  END
> <energy>
75.4039

> <i_ionizer_Ion_state_n>
1

> <i_ionizer_Tot_Q>
1

> <s_ionizer_Ion_centers>
44

> <s_ionizer_Ion_types>
N5

> <s_ionizer_Ion_ctrs_in>
13

> <r_ionizer_Ionization_penalty>
0.000148807

> <r_ionizer_Ionization_penalty_charging>
0.000148807

> <r_ionizer_Ionization_penalty_neutral>
0

$$$$
ZINC001211849948
                    3D
 Schrodinger Suite 2019-4.
 46 49  0  0  1  0            999 V2000
    3.3434    3.7112   -0.6130 C   0  0  0  0  0  0
    1.9483    3.8695   -0.0780 C   0  0  0  0  0  0
    1.1417    2.7311    0.0986 C   0  0  0  0  0  0
   -0.1521    2.8341    0.6339 C   0  0  0  0  0  0
   -0.9467    1.6331    0.8469 C   0  0  0  0  0  0
   -1.8578    1.5065    1.8253 N   0  0  0  0  0  0
   -2.2981    0.1924    1.6989 O   0  0  0  0  0  0
   -1.6256   -0.3438    0.6378 C   0  0  0  0  0  0
   -1.9621   -1.7597    0.2982 C   0  0  1  0  0  0
   -3.2656   -1.7871   -0.5319 C   0  0  0  0  0  0
   -3.2390   -2.8807   -1.5903 C   0  0  0  0  0  0
   -2.0381   -2.7079   -2.5232 C   0  0  0  0  0  0
   -0.8097   -2.5369   -0.4095 C   0  0  2  0  0  0
    0.5600   -2.3746    0.2497 C   0  0  0  0  0  0
    1.6767   -1.8722   -0.4371 C   0  0  0  0  0  0
    2.9184   -1.7556    0.1925 C   0  0  0  0  0  0
    3.0657   -2.1401    1.5214 C   0  0  0  0  0  0
    1.9712   -2.6379    2.2237 C   0  0  0  0  0  0
    0.7315   -2.7617    1.5922 C   0  0  0  0  0  0
   -0.8088    0.5089    0.0613 N   0  0  0  0  0  0
   -0.6469    4.0998    0.9768 C   0  0  0  0  0  0
    0.1363    5.2414    0.7837 C   0  0  0  0  0  0
    1.4261    5.1270    0.2615 C   0  0  0  0  0  0
    2.3461    6.5764    0.0647 Cl  0  0  0  0  0  0
    3.6015    2.6564   -0.7540 H   0  0  0  0  0  0
    3.4381    4.2117   -1.5821 H   0  0  0  0  0  0
    4.0706    4.1298    0.0916 H   0  0  0  0  0  0
    1.5327    1.7468   -0.1605 H   0  0  0  0  0  0
   -2.1652   -2.2810    1.2452 H   0  0  0  0  0  0
   -3.4306   -0.8256   -1.0364 H   0  0  0  0  0  0
   -4.1201   -1.9348    0.1389 H   0  0  0  0  0  0
   -4.1663   -2.8600   -2.1721 H   0  0  0  0  0  0
   -3.1981   -3.8622   -1.1002 H   0  0  0  0  0  0
   -2.2851   -1.9759   -3.3002 H   0  0  0  0  0  0
   -1.8478   -3.6544   -3.0414 H   0  0  0  0  0  0
   -1.0170   -3.6118   -0.3041 H   0  0  0  0  0  0
    1.5967   -1.5680   -1.4783 H   0  0  0  0  0  0
    3.7701   -1.3692   -0.3607 H   0  0  0  0  0  0
    4.0325   -2.0572    2.0078 H   0  0  0  0  0  0
    2.0845   -2.9407    3.2612 H   0  0  0  0  0  0
   -0.1017   -3.1649    2.1629 H   0  0  0  0  0  0
   -1.6461    4.2072    1.3936 H   0  0  0  0  0  0
   -0.2624    6.2162    1.0527 H   0  0  0  0  0  0
   -0.7864   -2.2632   -1.8746 N   0  3  0  0  0  0
    0.0049   -2.7638   -2.2960 H   0  0  0  0  0  0
   -0.6720   -1.2540   -2.0247 H   0  0  0  0  0  0
  1  2  1  0  0  0
  1 25  1  0  0  0
  1 26  1  0  0  0
  1 27  1  0  0  0
  2  3  2  0  0  0
  2 23  1  0  0  0
  3  4  1  0  0  0
  3 28  1  0  0  0
  4  5  1  0  0  0
  4 21  2  0  0  0
  5  6  2  0  0  0
  5 20  1  0  0  0
  6  7  1  0  0  0
  7  8  1  0  0  0
  8  9  1  0  0  0
  8 20  2  0  0  0
  9 10  1  0  0  0
  9 13  1  0  0  0
  9 29  1  0  0  0
 10 11  1  0  0  0
 10 30  1  0  0  0
 10 31  1  0  0  0
 11 12  1  0  0  0
 11 32  1  0  0  0
 11 33  1  0  0  0
 12 34  1  0  0  0
 12 35  1  0  0  0
 12 44  1  0  0  0
 13 14  1  0  0  0
 13 36  1  0  0  0
 13 44  1  0  0  0
 14 15  2  0  0  0
 14 19  1  0  0  0
 15 16  1  0  0  0
 15 37  1  0  0  0
 16 17  2  0  0  0
 16 38  1  0  0  0
 17 18  1  0  0  0
 17 39  1  0  0  0
 18 19  2  0  0  0
 18 40  1  0  0  0
 19 41  1  0  0  0
 21 22  1  0  0  0
 21 42  1  0  0  0
 22 23  2  0  0  0
 22 43  1  0  0  0
 23 24  1  0  0  0
 44 45  1  0  0  0
 44 46  1  0  0  0
M  CHG  1  44   1
M  END
> <energy>
75.4865

> <i_ionizer_Ion_state_n>
1

> <i_ionizer_Tot_Q>
1

> <s_ionizer_Ion_centers>
44

> <s_ionizer_Ion_types>
N5

> <s_ionizer_Ion_ctrs_in>
13

> <r_ionizer_Ionization_penalty>
0.000148807

> <r_ionizer_Ionization_penalty_charging>
0.000148807

> <r_ionizer_Ionization_penalty_neutral>
0

$$$$
ZINC001211850027
                    3D
 Schrodinger Suite 2019-4.
 33 34  0  0  1  0            999 V2000
   -4.7888    0.1800   -0.4090 C   0  0  0  0  0  0
   -3.4258    0.6484   -0.6019 N   0  0  0  0  0  0
   -2.6855    0.0280   -1.6910 C   0  0  0  0  0  0
   -2.8031    1.3029    0.4672 C   0  0  0  0  0  0
   -3.3666    1.6125    1.5145 O   0  0  0  0  0  0
   -1.3534    1.5388    0.3929 C   0  0  0  0  0  0
   -0.5243    0.7501    1.1960 C   0  0  0  0  0  0
    0.8657    0.8376    1.0636 C   0  0  0  0  0  0
    1.6875   -0.0643    1.7743 N   0  0  0  0  0  0
    2.6098   -0.9143    1.1158 C   0  0  0  0  0  0
    3.7736   -0.3823    0.6805 N   0  0  0  0  0  0
    4.6283   -1.1930    0.0120 C   0  0  0  0  0  0
    6.0645   -0.3813   -0.4836 Cl  0  0  0  0  0  0
    4.3812   -2.5347   -0.2592 C   0  0  0  0  0  0
    5.4895   -3.5520   -1.0974 Cl  0  0  0  0  0  0
    3.1695   -3.0702    0.1686 C   0  0  0  0  0  0
    2.2729   -2.2547    0.8579 C   0  0  0  0  0  0
    0.7635   -2.9253    1.3670 Cl  0  0  0  0  0  0
    1.4051    1.7757    0.1686 C   0  0  0  0  0  0
    0.5718    2.6016   -0.5918 C   0  0  0  0  0  0
   -0.8088    2.4785   -0.4776 C   0  0  0  0  0  0
   -1.5993    3.2424   -1.2429 F   0  0  0  0  0  0
   -5.3460    0.2892   -1.3452 H   0  0  0  0  0  0
   -5.3036    0.7450    0.3717 H   0  0  0  0  0  0
   -4.7659   -0.8774   -0.1216 H   0  0  0  0  0  0
   -2.2578   -0.9133   -1.3346 H   0  0  0  0  0  0
   -3.3536   -0.1580   -2.5333 H   0  0  0  0  0  0
   -1.8789    0.6706   -2.0413 H   0  0  0  0  0  0
   -0.9779    0.0391    1.8842 H   0  0  0  0  0  0
    1.1511   -0.6079    2.4437 H   0  0  0  0  0  0
    2.9255   -4.1089   -0.0357 H   0  0  0  0  0  0
    2.4878    1.8688    0.0674 H   0  0  0  0  0  0
    0.9921    3.3284   -1.2796 H   0  0  0  0  0  0
  1  2  1  0  0  0
  1 23  1  0  0  0
  1 24  1  0  0  0
  1 25  1  0  0  0
  2  3  1  0  0  0
  2  4  1  0  0  0
  3 26  1  0  0  0
  3 27  1  0  0  0
  3 28  1  0  0  0
  4  5  2  0  0  0
  4  6  1  0  0  0
  6  7  2  0  0  0
  6 21  1  0  0  0
  7  8  1  0  0  0
  7 29  1  0  0  0
  8  9  1  0  0  0
  8 19  2  0  0  0
  9 10  1  0  0  0
  9 30  1  0  0  0
 10 11  2  0  0  0
 10 17  1  0  0  0
 11 12  1  0  0  0
 12 13  1  0  0  0
 12 14  2  0  0  0
 14 15  1  0  0  0
 14 16  1  0  0  0
 16 17  2  0  0  0
 16 31  1  0  0  0
 17 18  1  0  0  0
 19 20  1  0  0  0
 19 32  1  0  0  0
 20 21  2  0  0  0
 20 33  1  0  0  0
 21 22  1  0  0  0
M  END
> <energy>
42.7666

> <i_ionizer_Ion_state_n>
0

> <i_ionizer_Tot_Q>
0

> <s_ionizer_Ion_centers>


> <s_ionizer_Ion_types>


> <s_ionizer_Ion_ctrs_in>


> <r_ionizer_Ionization_penalty>
0.00741239

> <r_ionizer_Ionization_penalty_charging>
0

> <r_ionizer_Ionization_penalty_neutral>
0.00741239

$$$$
ZINC001211850085
                    3D
 Schrodinger Suite 2019-4.
 46 49  0  0  1  0            999 V2000
   -5.1473    0.4952    2.2524 C   0  0  0  0  0  0
   -4.5426    0.7310    0.9017 C   0  0  0  0  0  0
   -5.1774    1.5549   -0.0327 C   0  0  0  0  0  0
   -4.5928    1.7669   -1.2758 C   0  0  0  0  0  0
   -5.2093    2.5543   -2.1675 F   0  0  0  0  0  0
   -3.3793    1.1775   -1.6093 C   0  0  0  0  0  0
   -2.7177    0.3551   -0.6853 C   0  0  0  0  0  0
   -1.4471   -0.2617   -1.0351 C   0  0  0  0  0  0
   -1.0153   -0.3809   -2.3029 N   0  0  0  0  0  0
    0.2355   -0.9738   -2.1751 O   0  0  0  0  0  0
    0.4451   -1.1587   -0.8386 C   0  0  0  0  0  0
    1.7574   -1.7661   -0.4653 C   0  0  2  0  0  0
    1.5689   -3.0229    0.3989 C   0  0  0  0  0  0
    1.3197   -2.6888    1.8684 C   0  0  0  0  0  0
    2.3942   -1.7524    2.4109 C   0  0  0  0  0  0
    2.7366   -0.7645    0.2049 C   0  0  1  0  0  0
    2.8495    0.5461   -0.5687 C   0  0  0  0  0  0
    3.6901    0.6356   -1.6894 C   0  0  0  0  0  0
    3.7731    1.8221   -2.4244 C   0  0  0  0  0  0
    3.0185    2.9329   -2.0499 C   0  0  0  0  0  0
    2.1696    2.8558   -0.9493 C   0  0  0  0  0  0
    2.0824    1.6708   -0.2185 C   0  0  0  0  0  0
   -0.5672   -0.7624   -0.1026 N   0  0  0  0  0  0
   -3.3098    0.1477    0.5684 C   0  0  0  0  0  0
   -2.7185   -0.6353    1.4841 F   0  0  0  0  0  0
   -6.2022    0.7906    2.2676 H   0  0  0  0  0  0
   -4.6131    1.0767    3.0102 H   0  0  0  0  0  0
   -5.1009   -0.5681    2.5095 H   0  0  0  0  0  0
   -6.1268    2.0328    0.1898 H   0  0  0  0  0  0
   -2.9570    1.3743   -2.5922 H   0  0  0  0  0  0
    2.2243   -2.1019   -1.4039 H   0  0  0  0  0  0
    0.7532   -3.6479    0.0135 H   0  0  0  0  0  0
    2.4839   -3.6283    0.3361 H   0  0  0  0  0  0
    1.3063   -3.6145    2.4543 H   0  0  0  0  0  0
    0.3319   -2.2272    1.9878 H   0  0  0  0  0  0
    2.1604   -1.4998    3.4511 H   0  0  0  0  0  0
    3.3694   -2.2531    2.4203 H   0  0  0  0  0  0
    3.7351   -1.2251    0.1698 H   0  0  0  0  0  0
    4.2824   -0.2200   -2.0045 H   0  0  0  0  0  0
    4.4233    1.8779   -3.2938 H   0  0  0  0  0  0
    3.0856    3.8547   -2.6217 H   0  0  0  0  0  0
    1.5680    3.7147   -0.6626 H   0  0  0  0  0  0
    1.3947    1.6229    0.6250 H   0  0  0  0  0  0
    2.4644   -0.5003    1.6440 N   0  3  0  0  0  0
    1.5694   -0.0045    1.7300 H   0  0  0  0  0  0
    3.2175    0.0841    2.0255 H   0  0  0  0  0  0
  1  2  1  0  0  0
  1 26  1  0  0  0
  1 27  1  0  0  0
  1 28  1  0  0  0
  2  3  2  0  0  0
  2 24  1  0  0  0
  3  4  1  0  0  0
  3 29  1  0  0  0
  4  5  1  0  0  0
  4  6  2  0  0  0
  6  7  1  0  0  0
  6 30  1  0  0  0
  7  8  1  0  0  0
  7 24  2  0  0  0
  8  9  2  0  0  0
  8 23  1  0  0  0
  9 10  1  0  0  0
 10 11  1  0  0  0
 11 12  1  0  0  0
 11 23  2  0  0  0
 12 13  1  0  0  0
 12 16  1  0  0  0
 12 31  1  0  0  0
 13 14  1  0  0  0
 13 32  1  0  0  0
 13 33  1  0  0  0
 14 15  1  0  0  0
 14 34  1  0  0  0
 14 35  1  0  0  0
 15 36  1  0  0  0
 15 37  1  0  0  0
 15 44  1  0  0  0
 16 17  1  0  0  0
 16 38  1  0  0  0
 16 44  1  0  0  0
 17 18  2  0  0  0
 17 22  1  0  0  0
 18 19  1  0  0  0
 18 39  1  0  0  0
 19 20  2  0  0  0
 19 40  1  0  0  0
 20 21  1  0  0  0
 20 41  1  0  0  0
 21 22  2  0  0  0
 21 42  1  0  0  0
 22 43  1  0  0  0
 24 25  1  0  0  0
 44 45  1  0  0  0
 44 46  1  0  0  0
M  CHG  1  44   1
M  END
> <energy>
52.7652

> <i_ionizer_Ion_state_n>
1

> <i_ionizer_Tot_Q>
1

> <s_ionizer_Ion_centers>
44

> <s_ionizer_Ion_types>
N5

> <s_ionizer_Ion_ctrs_in>
16

> <r_ionizer_Ionization_penalty>
0.000148807

> <r_ionizer_Ionization_penalty_charging>
0.000148807

> <r_ionizer_Ionization_penalty_neutral>
0

$$$$
ZINC001211850086
                    3D
 Schrodinger Suite 2019-4.
 46 49  0  0  1  0            999 V2000
    1.5982    3.8019   -2.6765 C   0  0  0  0  0  0
    0.3785    3.1778   -2.0602 C   0  0  0  0  0  0
   -0.4345    2.3049   -2.7857 C   0  0  0  0  0  0
   -1.5354    1.7078   -2.1807 C   0  0  0  0  0  0
   -2.2745    0.8316   -2.8707 F   0  0  0  0  0  0
   -1.8213    1.9301   -0.8350 C   0  0  0  0  0  0
   -0.9771    2.7564   -0.0737 C   0  0  0  0  0  0
   -0.9445    2.5742    1.3873 C   0  0  0  0  0  0
   -1.9814    2.0779    2.0876 N   0  0  0  0  0  0
   -1.3967    0.9790    2.7470 O   0  0  0  0  0  0
   -0.0515    0.9644    2.3182 C   0  0  0  0  0  0
    0.5344   -0.3419    1.6265 C   0  0  3  0  0  0
    2.0277   -0.0621    1.6976 C   0  0  0  0  0  0
    2.6882   -0.6830    0.4657 C   0  0  0  0  0  0
    2.6216   -2.2067    0.4882 C   0  0  0  0  0  0
    0.4467   -1.9352    1.7295 C   0  0  1  0  0  0
   -0.7362   -2.3212    0.8154 C   0  0  0  0  0  0
   -0.6396   -2.2142   -0.5799 C   0  0  0  0  0  0
   -1.7532   -2.4532   -1.4005 C   0  0  0  0  0  0
   -2.9744   -2.7910   -0.8310 C   0  0  0  0  0  0
   -3.0992   -2.8739    0.5488 C   0  0  0  0  0  0
   -1.9838   -2.6464    1.3748 C   0  0  0  0  0  0
    0.2651    2.1740    1.8987 N   0  0  0  0  0  0
    0.0633    3.4233   -0.7184 C   0  0  0  0  0  0
    0.8693    4.2249   -0.0044 F   0  0  0  0  0  0
    2.0443    3.1119   -3.4083 H   0  0  0  0  0  0
    1.3402    4.7557   -3.1617 H   0  0  0  0  0  0
    2.3558    3.9798   -1.8959 H   0  0  0  0  0  0
   -0.1987    2.0392   -3.8043 H   0  0  0  0  0  0
   -2.6154    1.3395   -0.3712 H   0  0  0  0  0  0
   -0.3891   -0.5324    2.1422 H   0  0  0  0  0  0
    2.2744    1.0072    1.6568 H   0  0  0  0  0  0
    2.4599   -0.4487    2.6311 H   0  0  0  0  0  0
    2.1875   -0.3176   -0.4455 H   0  0  0  0  0  0
    3.7378   -0.3655    0.3955 H   0  0  0  0  0  0
    2.4024   -2.5695   -0.5193 H   0  0  0  0  0  0
    3.6060   -2.6169    0.7478 H   0  0  0  0  0  0
    0.2071   -2.2290    2.7667 H   0  0  0  0  0  0
    0.3052   -1.9634   -1.0522 H   0  0  0  0  0  0
   -1.6461   -2.3876   -2.4837 H   0  0  0  0  0  0
   -3.8344   -2.9702   -1.4675 H   0  0  0  0  0  0
   -4.0605   -3.1057    1.0002 H   0  0  0  0  0  0
   -2.1093   -2.7004    2.4565 H   0  0  0  0  0  0
    1.6651   -2.7913    1.4660 N   0  3  0  0  0  0
    1.3492   -3.6986    1.1037 H   0  0  0  0  0  0
    2.1592   -2.9310    2.3551 H   0  0  0  0  0  0
  1  2  1  0  0  0
  1 26  1  0  0  0
  1 27  1  0  0  0
  1 28  1  0  0  0
  2  3  2  0  0  0
  2 24  1  0  0  0
  3  4  1  0  0  0
  3 29  1  0  0  0
  4  5  1  0  0  0
  4  6  2  0  0  0
  6  7  1  0  0  0
  6 30  1  0  0  0
  7  8  1  0  0  0
  7 24  2  0  0  0
  8  9  2  0  0  0
  8 23  1  0  0  0
  9 10  1  0  0  0
 10 11  1  0  0  0
 11 12  1  0  0  0
 11 23  2  0  0  0
 12 13  1  0  0  0
 12 16  1  0  0  0
 12 31  1  0  0  0
 13 14  1  0  0  0
 13 32  1  0  0  0
 13 33  1  0  0  0
 14 15  1  0  0  0
 14 34  1  0  0  0
 14 35  1  0  0  0
 15 36  1  0  0  0
 15 37  1  0  0  0
 15 44  1  0  0  0
 16 17  1  0  0  0
 16 38  1  0  0  0
 16 44  1  0  0  0
 17 18  2  0  0  0
 17 22  1  0  0  0
 18 19  1  0  0  0
 18 39  1  0  0  0
 19 20  2  0  0  0
 19 40  1  0  0  0
 20 21  1  0  0  0
 20 41  1  0  0  0
 21 22  2  0  0  0
 21 42  1  0  0  0
 22 43  1  0  0  0
 24 25  1  0  0  0
 44 45  1  0  0  0
 44 46  1  0  0  0
M  CHG  1  44   1
M  END
> <energy>
208.669

> <i_ionizer_Ion_state_n>
1

> <i_ionizer_Tot_Q>
1

> <s_ionizer_Ion_centers>
44

> <s_ionizer_Ion_types>
N5

> <s_ionizer_Ion_ctrs_in>
16

> <r_ionizer_Ionization_penalty>
0.000148807

> <r_ionizer_Ionization_penalty_charging>
0.000148807

> <r_ionizer_Ionization_penalty_neutral>
0

$$$$
ZINC001211850087
                    3D
 Schrodinger Suite 2019-4.
 46 49  0  0  1  0            999 V2000
   -5.9612    0.0727    1.0492 C   0  0  0  0  0  0
   -4.9414    0.1413   -0.0480 C   0  0  0  0  0  0
   -5.1707    0.8616   -1.2243 C   0  0  0  0  0  0
   -4.1958    0.8924   -2.2192 C   0  0  0  0  0  0
   -4.4226    1.5935   -3.3367 F   0  0  0  0  0  0
   -2.9932    0.2104   -2.0742 C   0  0  0  0  0  0
   -2.7558   -0.5368   -0.9148 C   0  0  0  0  0  0
   -1.4838   -1.2079   -0.7273 C   0  0  0  0  0  0
   -1.3094   -2.3253   -0.0039 N   0  0  0  0  0  0
    0.0746   -2.4593    0.0624 O   0  0  0  0  0  0
    0.6045   -1.4153   -0.6375 C   0  0  0  0  0  0
    2.0737   -1.1658   -0.5086 C   0  0  2  0  0  0
    2.8850   -2.4744   -0.3863 C   0  0  0  0  0  0
    3.0731   -2.8727    1.0744 C   0  0  0  0  0  0
    3.8045   -1.7793    1.8617 C   0  0  0  0  0  0
    2.3064   -0.2260    0.7162 C   0  0  2  0  0  0
    2.1328    1.2390    0.3112 C   0  0  0  0  0  0
    3.1772    1.9577   -0.2985 C   0  0  0  0  0  0
    3.0100    3.2952   -0.6642 C   0  0  0  0  0  0
    1.7870    3.9267   -0.4510 C   0  0  0  0  0  0
    0.7297    3.2188    0.1177 C   0  0  0  0  0  0
    0.9012    1.8864    0.5002 C   0  0  0  0  0  0
   -0.3140   -0.6685   -1.2127 N   0  0  0  0  0  0
   -3.7372   -0.5616    0.0848 C   0  0  0  0  0  0
   -3.5248   -1.2293    1.2323 F   0  0  0  0  0  0
   -6.4456   -0.9109    1.0521 H   0  0  0  0  0  0
   -5.4844    0.2373    2.0234 H   0  0  0  0  0  0
   -6.7290    0.8431    0.9285 H   0  0  0  0  0  0
   -6.0908    1.4155   -1.3756 H   0  0  0  0  0  0
   -2.2495    0.2658   -2.8637 H   0  0  0  0  0  0
    2.4011   -0.6783   -1.4366 H   0  0  0  0  0  0
    3.8767   -2.3124   -0.8283 H   0  0  0  0  0  0
    2.4294   -3.2903   -0.9568 H   0  0  0  0  0  0
    3.6331   -3.8115    1.1395 H   0  0  0  0  0  0
    2.0964   -3.0622    1.5340 H   0  0  0  0  0  0
    4.8779   -2.0054    1.8712 H   0  0  0  0  0  0
    3.4731   -1.7984    2.9086 H   0  0  0  0  0  0
    1.5707   -0.4301    1.5089 H   0  0  0  0  0  0
    4.1351    1.4764   -0.4852 H   0  0  0  0  0  0
    3.8323    3.8412   -1.1179 H   0  0  0  0  0  0
    1.6523    4.9672   -0.7394 H   0  0  0  0  0  0
   -0.2327    3.7023    0.2615 H   0  0  0  0  0  0
    0.0613    1.3518    0.9389 H   0  0  0  0  0  0
    3.6556   -0.4215    1.3060 N   0  3  0  0  0  0
    3.7952    0.2645    2.0571 H   0  0  0  0  0  0
    4.3637   -0.2791    0.5763 H   0  0  0  0  0  0
  1  2  1  0  0  0
  1 26  1  0  0  0
  1 27  1  0  0  0
  1 28  1  0  0  0
  2  3  2  0  0  0
  2 24  1  0  0  0
  3  4  1  0  0  0
  3 29  1  0  0  0
  4  5  1  0  0  0
  4  6  2  0  0  0
  6  7  1  0  0  0
  6 30  1  0  0  0
  7  8  1  0  0  0
  7 24  2  0  0  0
  8  9  2  0  0  0
  8 23  1  0  0  0
  9 10  1  0  0  0
 10 11  1  0  0  0
 11 12  1  0  0  0
 11 23  2  0  0  0
 12 13  1  0  0  0
 12 16  1  0  0  0
 12 31  1  0  0  0
 13 14  1  0  0  0
 13 32  1  0  0  0
 13 33  1  0  0  0
 14 15  1  0  0  0
 14 34  1  0  0  0
 14 35  1  0  0  0
 15 36  1  0  0  0
 15 37  1  0  0  0
 15 44  1  0  0  0
 16 17  1  0  0  0
 16 38  1  0  0  0
 16 44  1  0  0  0
 17 18  2  0  0  0
 17 22  1  0  0  0
 18 19  1  0  0  0
 18 39  1  0  0  0
 19 20  2  0  0  0
 19 40  1  0  0  0
 20 21  1  0  0  0
 20 41  1  0  0  0
 21 22  2  0  0  0
 21 42  1  0  0  0
 22 43  1  0  0  0
 24 25  1  0  0  0
 44 45  1  0  0  0
 44 46  1  0  0  0
M  CHG  1  44   1
M  END
> <energy>
55.6941

> <i_ionizer_Ion_state_n>
1

> <i_ionizer_Tot_Q>
1

> <s_ionizer_Ion_centers>
44

> <s_ionizer_Ion_types>
N5

> <s_ionizer_Ion_ctrs_in>
16

> <r_ionizer_Ionization_penalty>
0.000148807

> <r_ionizer_Ionization_penalty_charging>
0.000148807

> <r_ionizer_Ionization_penalty_neutral>
0

$$$$
ZINC001211850088
                    3D
 Schrodinger Suite 2019-4.
 46 49  0  0  1  0            999 V2000
   -4.2807    2.4280   -1.6138 C   0  0  0  0  0  0
   -4.1742    1.1464   -0.8427 C   0  0  0  0  0  0
   -5.3213    0.4272   -0.4880 C   0  0  0  0  0  0
   -5.2036   -0.7335    0.2702 C   0  0  0  0  0  0
   -6.3070   -1.4187    0.5994 F   0  0  0  0  0  0
   -3.9631   -1.1913    0.6981 C   0  0  0  0  0  0
   -2.8019   -0.4815    0.3619 C   0  0  0  0  0  0
   -1.5030   -0.9450    0.8147 C   0  0  0  0  0  0
   -1.3092   -1.5684    1.9898 N   0  0  0  0  0  0
    0.0595   -1.8267    2.0076 O   0  0  0  0  0  0
    0.5580   -1.3549    0.8292 C   0  0  0  0  0  0
    2.0143   -1.5812    0.5791 C   0  0  1  0  0  0
    2.2171   -2.8779   -0.2277 C   0  0  0  0  0  0
    1.8318   -2.7057   -1.6984 C   0  0  0  0  0  0
    2.5114   -1.4881   -2.3218 C   0  0  0  0  0  0
    2.6953   -0.3976   -0.1597 C   0  0  2  0  0  0
    2.6115    0.9076    0.6271 C   0  0  0  0  0  0
    3.4941    1.1171    1.7026 C   0  0  0  0  0  0
    3.4377    2.2892    2.4590 C   0  0  0  0  0  0
    2.4985    3.2709    2.1545 C   0  0  0  0  0  0
    1.6124    3.0788    1.0981 C   0  0  0  0  0  0
    1.6663    1.9062    0.3423 C   0  0  0  0  0  0
   -0.3621   -0.8230    0.0554 N   0  0  0  0  0  0
   -2.9230    0.6837   -0.4072 C   0  0  0  0  0  0
   -1.8322    1.3998   -0.7254 F   0  0  0  0  0  0
   -4.3060    3.2775   -0.9230 H   0  0  0  0  0  0
   -3.4303    2.5469   -2.2940 H   0  0  0  0  0  0
   -5.1903    2.4452   -2.2249 H   0  0  0  0  0  0
   -6.3103    0.7603   -0.7894 H   0  0  0  0  0  0
   -3.9127   -2.1011    1.2897 H   0  0  0  0  0  0
    2.5025   -1.7149    1.5548 H   0  0  0  0  0  0
    1.6447   -3.7049    0.2094 H   0  0  0  0  0  0
    3.2749   -3.1669   -0.1756 H   0  0  0  0  0  0
    0.7432   -2.6064   -1.7888 H   0  0  0  0  0  0
    2.1090   -3.6067   -2.2564 H   0  0  0  0  0  0
    3.5939   -1.6516   -2.3930 H   0  0  0  0  0  0
    2.1468   -1.3536   -3.3467 H   0  0  0  0  0  0
    3.7715   -0.6228   -0.2201 H   0  0  0  0  0  0
    4.2397    0.3665    1.9565 H   0  0  0  0  0  0
    4.1287    2.4372    3.2842 H   0  0  0  0  0  0
    2.4579    4.1873    2.7368 H   0  0  0  0  0  0
    0.8763    3.8406    0.8570 H   0  0  0  0  0  0
    0.9568    1.7849   -0.4725 H   0  0  0  0  0  0
    2.2407   -0.2544   -1.5678 N   0  3  0  0  0  0
    2.7409    0.5273   -2.0071 H   0  0  0  0  0  0
    1.2316   -0.0650   -1.5800 H   0  0  0  0  0  0
  1  2  1  0  0  0
  1 26  1  0  0  0
  1 27  1  0  0  0
  1 28  1  0  0  0
  2  3  2  0  0  0
  2 24  1  0  0  0
  3  4  1  0  0  0
  3 29  1  0  0  0
  4  5  1  0  0  0
  4  6  2  0  0  0
  6  7  1  0  0  0
  6 30  1  0  0  0
  7  8  1  0  0  0
  7 24  2  0  0  0
  8  9  2  0  0  0
  8 23  1  0  0  0
  9 10  1  0  0  0
 10 11  1  0  0  0
 11 12  1  0  0  0
 11 23  2  0  0  0
 12 13  1  0  0  0
 12 16  1  0  0  0
 12 31  1  0  0  0
 13 14  1  0  0  0
 13 32  1  0  0  0
 13 33  1  0  0  0
 14 15  1  0  0  0
 14 34  1  0  0  0
 14 35  1  0  0  0
 15 36  1  0  0  0
 15 37  1  0  0  0
 15 44  1  0  0  0
 16 17  1  0  0  0
 16 38  1  0  0  0
 16 44  1  0  0  0
 17 18  2  0  0  0
 17 22  1  0  0  0
 18 19  1  0  0  0
 18 39  1  0  0  0
 19 20  2  0  0  0
 19 40  1  0  0  0
 20 21  1  0  0  0
 20 41  1  0  0  0
 21 22  2  0  0  0
 21 42  1  0  0  0
 22 43  1  0  0  0
 24 25  1  0  0  0
 44 45  1  0  0  0
 44 46  1  0  0  0
M  CHG  1  44   1
M  END
> <energy>
52.3314

> <i_ionizer_Ion_state_n>
1

> <i_ionizer_Tot_Q>
1

> <s_ionizer_Ion_centers>
44

> <s_ionizer_Ion_types>
N5

> <s_ionizer_Ion_ctrs_in>
16

> <r_ionizer_Ionization_penalty>
0.000148807

> <r_ionizer_Ionization_penalty_charging>
0.000148807

> <r_ionizer_Ionization_penalty_neutral>
0

$$$$
ZINC001211850112
                    3D
 Schrodinger Suite 2019-4.
 53 56  0  0  1  0            999 V2000
    6.1596    2.2020   -1.6571 C   0  0  0  0  0  0
    4.7464    1.7153   -1.3485 C   0  0  0  0  0  0
    3.9105    2.8565   -0.7632 C   0  0  0  0  0  0
    4.1880    1.2525   -2.5879 O   0  0  0  0  0  0
    3.0475    0.4989   -2.5479 C   0  0  0  0  0  0
    2.3825    0.3684   -3.7676 C   0  0  0  0  0  0
    1.1728   -0.3263   -3.8449 C   0  0  0  0  0  0
    0.6175   -0.8882   -2.6955 C   0  0  0  0  0  0
    1.2785   -0.7822   -1.4660 C   0  0  0  0  0  0
    0.6589   -1.2634   -0.2372 C   0  0  0  0  0  0
    1.1224   -0.9791    0.9940 N   0  0  0  0  0  0
    0.0908   -1.3772    1.8361 O   0  0  0  0  0  0
   -0.8807   -1.8967    1.0318 C   0  0  0  0  0  0
   -2.2234   -2.1405    1.6304 C   0  0  1  0  0  0
   -2.1354   -2.9469    2.9470 C   0  0  0  0  0  0
   -3.1053   -2.4100    3.9946 C   0  0  0  0  0  0
   -2.8910   -0.9161    4.2503 C   0  0  0  0  0  0
   -3.0102   -0.7996    1.8066 C   0  0  2  0  0  0
   -2.9460    0.1174    0.5814 C   0  0  0  0  0  0
   -3.6732   -0.2297   -0.5724 C   0  0  0  0  0  0
   -3.5649    0.5253   -1.7442 C   0  0  0  0  0  0
   -2.7327    1.6399   -1.7856 C   0  0  0  0  0  0
   -2.0279    2.0162   -0.6478 C   0  0  0  0  0  0
   -2.1353    1.2643    0.5261 C   0  0  0  0  0  0
   -0.5447   -1.9280   -0.2370 N   0  0  0  0  0  0
    2.5082   -0.1072   -1.4113 C   0  0  0  0  0  0
    6.7514    1.3871   -2.0888 H   0  0  0  0  0  0
    6.1500    3.0100   -2.3966 H   0  0  0  0  0  0
    6.6594    2.5575   -0.7512 H   0  0  0  0  0  0
    4.8449    0.8928   -0.6323 H   0  0  0  0  0  0
    4.3748    3.2644    0.1403 H   0  0  0  0  0  0
    3.7861    3.6674   -1.4886 H   0  0  0  0  0  0
    2.9011    2.5236   -0.4983 H   0  0  0  0  0  0
    2.7932    0.8282   -4.6638 H   0  0  0  0  0  0
    0.6506   -0.3996   -4.7971 H   0  0  0  0  0  0
   -0.3509   -1.3826   -2.7591 H   0  0  0  0  0  0
   -2.7837   -2.7570    0.9108 H   0  0  0  0  0  0
   -2.3623   -4.0013    2.7437 H   0  0  0  0  0  0
   -1.1227   -2.9389    3.3665 H   0  0  0  0  0  0
   -2.9919   -2.9618    4.9332 H   0  0  0  0  0  0
   -4.1334   -2.5839    3.6539 H   0  0  0  0  0  0
   -2.0528   -0.7824    4.9439 H   0  0  0  0  0  0
   -3.7734   -0.5098    4.7540 H   0  0  0  0  0  0
   -4.0761   -1.0467    1.9095 H   0  0  0  0  0  0
   -4.3190   -1.1060   -0.5712 H   0  0  0  0  0  0
   -4.1282    0.2360   -2.6268 H   0  0  0  0  0  0
   -2.6347    2.2138   -2.7013 H   0  0  0  0  0  0
   -1.3867    2.8940   -0.6725 H   0  0  0  0  0  0
   -1.5576    1.5844    1.3893 H   0  0  0  0  0  0
    3.0110   -0.0354   -0.4554 H   0  0  0  0  0  0
   -2.6214   -0.0902    3.0568 N   0  3  0  0  0  0
   -3.1577    0.7826    3.1265 H   0  0  0  0  0  0
   -1.6184    0.1264    3.0201 H   0  0  0  0  0  0
  1  2  1  0  0  0
  1 27  1  0  0  0
  1 28  1  0  0  0
  1 29  1  0  0  0
  2  3  1  0  0  0
  2  4  1  0  0  0
  2 30  1  0  0  0
  3 31  1  0  0  0
  3 32  1  0  0  0
  3 33  1  0  0  0
  4  5  1  0  0  0
  5  6  2  0  0  0
  5 26  1  0  0  0
  6  7  1  0  0  0
  6 34  1  0  0  0
  7  8  2  0  0  0
  7 35  1  0  0  0
  8  9  1  0  0  0
  8 36  1  0  0  0
  9 10  1  0  0  0
  9 26  2  0  0  0
 10 11  2  0  0  0
 10 25  1  0  0  0
 11 12  1  0  0  0
 12 13  1  0  0  0
 13 14  1  0  0  0
 13 25  2  0  0  0
 14 15  1  0  0  0
 14 18  1  0  0  0
 14 37  1  0  0  0
 15 16  1  0  0  0
 15 38  1  0  0  0
 15 39  1  0  0  0
 16 17  1  0  0  0
 16 40  1  0  0  0
 16 41  1  0  0  0
 17 42  1  0  0  0
 17 43  1  0  0  0
 17 51  1  0  0  0
 18 19  1  0  0  0
 18 44  1  0  0  0
 18 51  1  0  0  0
 19 20  2  0  0  0
 19 24  1  0  0  0
 20 21  1  0  0  0
 20 45  1  0  0  0
 21 22  2  0  0  0
 21 46  1  0  0  0
 22 23  1  0  0  0
 22 47  1  0  0  0
 23 24  2  0  0  0
 23 48  1  0  0  0
 24 49  1  0  0  0
 26 50  1  0  0  0
 51 52  1  0  0  0
 51 53  1  0  0  0
M  CHG  1  51   1
M  END
> <energy>
77.2348

> <i_ionizer_Ion_state_n>
1

> <i_ionizer_Tot_Q>
1

> <s_ionizer_Ion_centers>
51

> <s_ionizer_Ion_types>
N5

> <s_ionizer_Ion_ctrs_in>
18

> <r_ionizer_Ionization_penalty>
0.000148807

> <r_ionizer_Ionization_penalty_charging>
0.000148807

> <r_ionizer_Ionization_penalty_neutral>
0

$$$$
ZINC001211850114
                    3D
 Schrodinger Suite 2019-4.
 53 56  0  0  1  0            999 V2000
    1.7931   -5.0957   -3.4524 C   0  0  0  0  0  0
    2.1711   -3.8103   -2.7185 C   0  0  0  0  0  0
    1.6083   -2.6078   -3.4738 C   0  0  0  0  0  0
    1.6070   -3.8956   -1.4005 O   0  0  0  0  0  0
    2.2270   -3.0764   -0.4938 C   0  0  0  0  0  0
    3.2746   -3.5630    0.2796 C   0  0  0  0  0  0
    3.8127   -2.7692    1.2997 C   0  0  0  0  0  0
    3.3178   -1.4836    1.5290 C   0  0  0  0  0  0
    2.2670   -0.9882    0.7498 C   0  0  0  0  0  0
    1.7068    0.3404    0.9539 C   0  0  0  0  0  0
    1.8701    1.0958    2.0548 N   0  0  0  0  0  0
    1.0171    2.1840    1.8340 O   0  0  0  0  0  0
    0.4485    1.9834    0.6112 C   0  0  0  0  0  0
   -0.6886    2.8472    0.1974 C   0  0  2  0  0  0
   -0.3015    4.3264    0.0687 C   0  0  0  0  0  0
   -1.5254    5.1385   -0.3658 C   0  0  0  0  0  0
   -2.7272    4.8835    0.5433 C   0  0  0  0  0  0
   -1.9013    2.6820    1.1540 C   0  0  2  0  0  0
   -2.3236    1.2336    1.3832 C   0  0  0  0  0  0
   -2.6045    0.3609    0.3222 C   0  0  0  0  0  0
   -2.9402   -0.9761    0.5613 C   0  0  0  0  0  0
   -2.9994   -1.4551    1.8709 C   0  0  0  0  0  0
   -2.7663   -0.5903    2.9362 C   0  0  0  0  0  0
   -2.4310    0.7425    2.6970 C   0  0  0  0  0  0
    0.8910    0.9101    0.0069 N   0  0  0  0  0  0
    1.7119   -1.8072   -0.2489 C   0  0  0  0  0  0
    2.3169   -5.1699   -4.4097 H   0  0  0  0  0  0
    2.0254   -5.9777   -2.8478 H   0  0  0  0  0  0
    0.7183   -5.1275   -3.6565 H   0  0  0  0  0  0
    3.2646   -3.7520   -2.6657 H   0  0  0  0  0  0
    1.9880   -1.6694   -3.0563 H   0  0  0  0  0  0
    0.5167   -2.5741   -3.3893 H   0  0  0  0  0  0
    1.8772   -2.6434   -4.5330 H   0  0  0  0  0  0
    3.6565   -4.5646    0.1151 H   0  0  0  0  0  0
    4.6122   -3.1587    1.9274 H   0  0  0  0  0  0
    3.7420   -0.8773    2.3293 H   0  0  0  0  0  0
   -0.9849    2.5062   -0.8041 H   0  0  0  0  0  0
    0.5075    4.4466   -0.6635 H   0  0  0  0  0  0
    0.0795    4.7214    1.0206 H   0  0  0  0  0  0
   -1.7822    4.8748   -1.4019 H   0  0  0  0  0  0
   -1.2765    6.2071   -0.3765 H   0  0  0  0  0  0
   -3.6025    5.4043    0.1411 H   0  0  0  0  0  0
   -2.5355    5.2972    1.5395 H   0  0  0  0  0  0
   -1.6194    3.0950    2.1344 H   0  0  0  0  0  0
   -2.5543    0.7120   -0.7068 H   0  0  0  0  0  0
   -3.1512   -1.6414   -0.2706 H   0  0  0  0  0  0
   -3.2310   -2.5010    2.0565 H   0  0  0  0  0  0
   -2.8368   -0.9540    3.9568 H   0  0  0  0  0  0
   -2.2395    1.3976    3.5444 H   0  0  0  0  0  0
    0.8632   -1.4545   -0.8298 H   0  0  0  0  0  0
   -3.0594    3.4559    0.6491 N   0  3  0  0  0  0
   -3.8486    3.3411    1.2957 H   0  0  0  0  0  0
   -3.3223    3.1020   -0.2781 H   0  0  0  0  0  0
  1  2  1  0  0  0
  1 27  1  0  0  0
  1 28  1  0  0  0
  1 29  1  0  0  0
  2  3  1  0  0  0
  2  4  1  0  0  0
  2 30  1  0  0  0
  3 31  1  0  0  0
  3 32  1  0  0  0
  3 33  1  0  0  0
  4  5  1  0  0  0
  5  6  2  0  0  0
  5 26  1  0  0  0
  6  7  1  0  0  0
  6 34  1  0  0  0
  7  8  2  0  0  0
  7 35  1  0  0  0
  8  9  1  0  0  0
  8 36  1  0  0  0
  9 10  1  0  0  0
  9 26  2  0  0  0
 10 11  2  0  0  0
 10 25  1  0  0  0
 11 12  1  0  0  0
 12 13  1  0  0  0
 13 14  1  0  0  0
 13 25  2  0  0  0
 14 15  1  0  0  0
 14 18  1  0  0  0
 14 37  1  0  0  0
 15 16  1  0  0  0
 15 38  1  0  0  0
 15 39  1  0  0  0
 16 17  1  0  0  0
 16 40  1  0  0  0
 16 41  1  0  0  0
 17 42  1  0  0  0
 17 43  1  0  0  0
 17 51  1  0  0  0
 18 19  1  0  0  0
 18 44  1  0  0  0
 18 51  1  0  0  0
 19 20  2  0  0  0
 19 24  1  0  0  0
 20 21  1  0  0  0
 20 45  1  0  0  0
 21 22  2  0  0  0
 21 46  1  0  0  0
 22 23  1  0  0  0
 22 47  1  0  0  0
 23 24  2  0  0  0
 23 48  1  0  0  0
 24 49  1  0  0  0
 26 50  1  0  0  0
 51 52  1  0  0  0
 51 53  1  0  0  0
M  CHG  1  51   1
M  END
> <energy>
65.4771

> <i_ionizer_Ion_state_n>
1

> <i_ionizer_Tot_Q>
1

> <s_ionizer_Ion_centers>
51

> <s_ionizer_Ion_types>
N5

> <s_ionizer_Ion_ctrs_in>
18

> <r_ionizer_Ionization_penalty>
0.000148807

> <r_ionizer_Ionization_penalty_charging>
0.000148807

> <r_ionizer_Ionization_penalty_neutral>
0

$$$$
ZINC001211850115
                    3D
 Schrodinger Suite 2019-4.
 53 56  0  0  1  0            999 V2000
    3.4034   -0.3700   -2.7020 C   0  0  0  0  0  0
    4.4828    0.4691   -2.0050 C   0  0  0  0  0  0
    4.0050    1.8915   -1.7079 C   0  0  0  0  0  0
    5.0829   -0.1451   -0.8402 O   0  0  0  0  0  0
    4.2231   -0.8220   -0.0234 C   0  0  0  0  0  0
    4.3063   -2.2112    0.0133 C   0  0  0  0  0  0
    3.3546   -2.9406    0.7274 C   0  0  0  0  0  0
    2.3177   -2.2785    1.3914 C   0  0  0  0  0  0
    2.2750   -0.8779    1.4037 C   0  0  0  0  0  0
    1.1433   -0.1638    1.9672 C   0  0  0  0  0  0
    1.2238    1.0568    2.5223 N   0  0  0  0  0  0
   -0.1038    1.4668    2.5988 O   0  0  0  0  0  0
   -0.8580    0.4597    2.0701 C   0  0  0  0  0  0
   -2.3008    0.7389    1.7519 C   0  0  1  0  0  0
   -2.7871    2.0932    2.3238 C   0  0  0  0  0  0
   -2.4605    3.2463    1.3720 C   0  0  0  0  0  0
   -3.0859    3.0433   -0.0096 C   0  0  0  0  0  0
   -2.4691    0.6827    0.1966 C   0  0  1  0  0  0
   -2.8708   -0.7180   -0.2697 C   0  0  0  0  0  0
   -4.1938   -1.1752   -0.1358 C   0  0  0  0  0  0
   -4.5531   -2.4556   -0.5603 C   0  0  0  0  0  0
   -3.5985   -3.3017   -1.1202 C   0  0  0  0  0  0
   -2.2832   -2.8634   -1.2608 C   0  0  0  0  0  0
   -1.9200   -1.5825   -0.8383 C   0  0  0  0  0  0
   -0.1423   -0.5966    1.7468 N   0  0  0  0  0  0
    3.2679   -0.1543    0.7339 C   0  0  0  0  0  0
    3.0814    0.1080   -3.6337 H   0  0  0  0  0  0
    2.5126   -0.4999   -2.0752 H   0  0  0  0  0  0
    3.7836   -1.3709   -2.9367 H   0  0  0  0  0  0
    5.3131    0.5613   -2.7152 H   0  0  0  0  0  0
    3.9004    2.4636   -2.6356 H   0  0  0  0  0  0
    4.7052    2.4145   -1.0472 H   0  0  0  0  0  0
    3.0253    1.8937   -1.2199 H   0  0  0  0  0  0
    5.0844   -2.7234   -0.5444 H   0  0  0  0  0  0
    3.4021   -4.0268    0.7331 H   0  0  0  0  0  0
    1.5436   -2.8589    1.8917 H   0  0  0  0  0  0
   -2.8976   -0.0401    2.2453 H   0  0  0  0  0  0
   -3.8775    2.0566    2.4622 H   0  0  0  0  0  0
   -2.3680    2.2869    3.3182 H   0  0  0  0  0  0
   -1.3729    3.3341    1.2595 H   0  0  0  0  0  0
   -2.8050    4.1993    1.7955 H   0  0  0  0  0  0
   -2.3945    3.4219   -0.7733 H   0  0  0  0  0  0
   -3.9969    3.6459   -0.0901 H   0  0  0  0  0  0
   -1.5134    0.9284   -0.2944 H   0  0  0  0  0  0
   -4.9542   -0.5258    0.2937 H   0  0  0  0  0  0
   -5.5801   -2.7949   -0.4490 H   0  0  0  0  0  0
   -3.8782   -4.3017   -1.4430 H   0  0  0  0  0  0
   -1.5346   -3.5237   -1.6931 H   0  0  0  0  0  0
   -0.8846   -1.2695   -0.9453 H   0  0  0  0  0  0
    3.2582    0.9292    0.7566 H   0  0  0  0  0  0
   -3.4750    1.6546   -0.3124 N   0  3  0  0  0  0
   -4.3813    1.4585    0.1285 H   0  0  0  0  0  0
   -3.5587    1.5460   -1.3300 H   0  0  0  0  0  0
  1  2  1  0  0  0
  1 27  1  0  0  0
  1 28  1  0  0  0
  1 29  1  0  0  0
  2  3  1  0  0  0
  2  4  1  0  0  0
  2 30  1  0  0  0
  3 31  1  0  0  0
  3 32  1  0  0  0
  3 33  1  0  0  0
  4  5  1  0  0  0
  5  6  2  0  0  0
  5 26  1  0  0  0
  6  7  1  0  0  0
  6 34  1  0  0  0
  7  8  2  0  0  0
  7 35  1  0  0  0
  8  9  1  0  0  0
  8 36  1  0  0  0
  9 10  1  0  0  0
  9 26  2  0  0  0
 10 11  2  0  0  0
 10 25  1  0  0  0
 11 12  1  0  0  0
 12 13  1  0  0  0
 13 14  1  0  0  0
 13 25  2  0  0  0
 14 15  1  0  0  0
 14 18  1  0  0  0
 14 37  1  0  0  0
 15 16  1  0  0  0
 15 38  1  0  0  0
 15 39  1  0  0  0
 16 17  1  0  0  0
 16 40  1  0  0  0
 16 41  1  0  0  0
 17 42  1  0  0  0
 17 43  1  0  0  0
 17 51  1  0  0  0
 18 19  1  0  0  0
 18 44  1  0  0  0
 18 51  1  0  0  0
 19 20  2  0  0  0
 19 24  1  0  0  0
 20 21  1  0  0  0
 20 45  1  0  0  0
 21 22  2  0  0  0
 21 46  1  0  0  0
 22 23  1  0  0  0
 22 47  1  0  0  0
 23 24  2  0  0  0
 23 48  1  0  0  0
 24 49  1  0  0  0
 26 50  1  0  0  0
 51 52  1  0  0  0
 51 53  1  0  0  0
M  CHG  1  51   1
M  END
> <energy>
80.6549

> <i_ionizer_Ion_state_n>
1

> <i_ionizer_Tot_Q>
1

> <s_ionizer_Ion_centers>
51

> <s_ionizer_Ion_types>
N5

> <s_ionizer_Ion_ctrs_in>
18

> <r_ionizer_Ionization_penalty>
0.000148807

> <r_ionizer_Ionization_penalty_charging>
0.000148807

> <r_ionizer_Ionization_penalty_neutral>
0

$$$$
ZINC001211850116
                    3D
 Schrodinger Suite 2019-4.
 53 56  0  0  1  0            999 V2000
    4.0202   -1.5592   -0.8879 C   0  0  0  0  0  0
    4.0963   -2.4151    0.3807 C   0  0  0  0  0  0
    2.9715   -3.4426    0.4450 C   0  0  0  0  0  0
    4.1893   -1.7505    1.6524 O   0  0  0  0  0  0
    3.8792   -0.4297    1.7364 C   0  0  0  0  0  0
    4.8247    0.3910    2.3476 C   0  0  0  0  0  0
    4.5785    1.7543    2.4907 C   0  0  0  0  0  0
    3.3917    2.3016    1.9971 C   0  0  0  0  0  0
    2.4368    1.4829    1.3832 C   0  0  0  0  0  0
    1.2185    2.0385    0.8101 C   0  0  0  0  0  0
    0.6757    3.2225    1.1363 N   0  0  0  0  0  0
   -0.4924    3.2710    0.3689 O   0  0  0  0  0  0
   -0.5335    2.1134   -0.3532 C   0  0  0  0  0  0
   -1.7015    1.8948   -1.2471 C   0  0  2  0  0  0
   -2.9967    2.5514   -0.7489 C   0  0  0  0  0  0
   -4.2409    1.9608   -1.4089 C   0  0  0  0  0  0
   -3.9675    1.3250   -2.7728 C   0  0  0  0  0  0
   -1.9388    0.4064   -1.6448 C   0  0  1  0  0  0
   -2.4467   -0.5820   -0.5730 C   0  0  0  0  0  0
   -1.8902   -0.6341    0.7188 C   0  0  0  0  0  0
   -2.2979   -1.5819    1.6672 C   0  0  0  0  0  0
   -3.2751   -2.5146    1.3520 C   0  0  0  0  0  0
   -3.8480   -2.4946    0.0894 C   0  0  0  0  0  0
   -3.4339   -1.5491   -0.8585 C   0  0  0  0  0  0
    0.5141    1.3494   -0.1538 N   0  0  0  0  0  0
    2.6679    0.1028    1.3033 C   0  0  0  0  0  0
    4.2285   -2.1732   -1.7689 H   0  0  0  0  0  0
    4.7399   -0.7351   -0.8641 H   0  0  0  0  0  0
    3.0260   -1.1286   -1.0373 H   0  0  0  0  0  0
    5.0387   -2.9708    0.3111 H   0  0  0  0  0  0
    2.9919   -4.1039   -0.4266 H   0  0  0  0  0  0
    3.0572   -4.0532    1.3507 H   0  0  0  0  0  0
    1.9923   -2.9570    0.4855 H   0  0  0  0  0  0
    5.7588   -0.0344    2.7061 H   0  0  0  0  0  0
    5.3163    2.3932    2.9684 H   0  0  0  0  0  0
    3.2187    3.3717    2.0920 H   0  0  0  0  0  0
   -1.4184    2.4267   -2.1701 H   0  0  0  0  0  0
   -2.9528    3.6277   -0.9599 H   0  0  0  0  0  0
   -3.0975    2.4677    0.3391 H   0  0  0  0  0  0
   -4.9998    2.7441   -1.5145 H   0  0  0  0  0  0
   -4.6777    1.2110   -0.7400 H   0  0  0  0  0  0
   -3.8500    2.1229   -3.5154 H   0  0  0  0  0  0
   -4.8528    0.7556   -3.0815 H   0  0  0  0  0  0
   -0.9789   -0.0077   -1.9834 H   0  0  0  0  0  0
   -1.1027    0.0405    1.0323 H   0  0  0  0  0  0
   -1.8392   -1.5935    2.6530 H   0  0  0  0  0  0
   -3.5872   -3.2555    2.0834 H   0  0  0  0  0  0
   -4.6246   -3.2130   -0.1660 H   0  0  0  0  0  0
   -3.9106   -1.6023   -1.8302 H   0  0  0  0  0  0
    1.9063   -0.5527    0.8883 H   0  0  0  0  0  0
   -2.7799    0.4395   -2.8935 N   0  3  0  0  0  0
   -3.1026   -0.5140   -3.0959 H   0  0  0  0  0  0
   -2.1989    0.7763   -3.6703 H   0  0  0  0  0  0
  1  2  1  0  0  0
  1 27  1  0  0  0
  1 28  1  0  0  0
  1 29  1  0  0  0
  2  3  1  0  0  0
  2  4  1  0  0  0
  2 30  1  0  0  0
  3 31  1  0  0  0
  3 32  1  0  0  0
  3 33  1  0  0  0
  4  5  1  0  0  0
  5  6  2  0  0  0
  5 26  1  0  0  0
  6  7  1  0  0  0
  6 34  1  0  0  0
  7  8  2  0  0  0
  7 35  1  0  0  0
  8  9  1  0  0  0
  8 36  1  0  0  0
  9 10  1  0  0  0
  9 26  2  0  0  0
 10 11  2  0  0  0
 10 25  1  0  0  0
 11 12  1  0  0  0
 12 13  1  0  0  0
 13 14  1  0  0  0
 13 25  2  0  0  0
 14 15  1  0  0  0
 14 18  1  0  0  0
 14 37  1  0  0  0
 15 16  1  0  0  0
 15 38  1  0  0  0
 15 39  1  0  0  0
 16 17  1  0  0  0
 16 40  1  0  0  0
 16 41  1  0  0  0
 17 42  1  0  0  0
 17 43  1  0  0  0
 17 51  1  0  0  0
 18 19  1  0  0  0
 18 44  1  0  0  0
 18 51  1  0  0  0
 19 20  2  0  0  0
 19 24  1  0  0  0
 20 21  1  0  0  0
 20 45  1  0  0  0
 21 22  2  0  0  0
 21 46  1  0  0  0
 22 23  1  0  0  0
 22 47  1  0  0  0
 23 24  2  0  0  0
 23 48  1  0  0  0
 24 49  1  0  0  0
 26 50  1  0  0  0
 51 52  1  0  0  0
 51 53  1  0  0  0
M  CHG  1  51   1
M  END
> <energy>
85.3944

> <i_ionizer_Ion_state_n>
1

> <i_ionizer_Tot_Q>
1

> <s_ionizer_Ion_centers>
51

> <s_ionizer_Ion_types>
N5

> <s_ionizer_Ion_ctrs_in>
18

> <r_ionizer_Ionization_penalty>
0.000148807

> <r_ionizer_Ionization_penalty_charging>
0.000148807

> <r_ionizer_Ionization_penalty_neutral>
0

$$$$
ZINC001211850230
                    3D
 Schrodinger Suite 2019-4.
 45 49  0  0  1  0            999 V2000
    7.7675    1.2059   -0.2892 C   0  0  0  0  0  0
    7.0373    1.5507    0.7463 N   0  0  0  0  0  0
    5.7172    1.1986    0.5172 C   0  0  0  0  0  0
    4.6417    1.4030    1.4037 C   0  0  0  0  0  0
    3.3562    0.9781    1.0477 C   0  0  0  0  0  0
    3.1153    0.3634   -0.1858 C   0  0  0  0  0  0
    1.7758   -0.1073   -0.5104 C   0  0  0  0  0  0
    1.3128   -0.2569   -1.7611 N   0  0  0  0  0  0
    0.0323   -0.7749   -1.5799 O   0  0  0  0  0  0
   -0.1437   -0.9118   -0.2342 C   0  0  0  0  0  0
   -1.3832   -1.5860    0.2463 C   0  0  2  0  0  0
   -2.0453   -2.4852   -0.8037 C   0  0  0  0  0  0
   -3.2659   -3.2175   -0.2334 C   0  0  0  0  0  0
   -3.7268   -2.6731    1.1199 C   0  0  0  0  0  0
   -2.4048   -0.6229    0.9217 C   0  0  1  0  0  0
   -2.5557    0.7442    0.2687 C   0  0  0  0  0  0
   -2.0335    1.8864    0.9001 C   0  0  0  0  0  0
   -2.1711    3.1491    0.3195 C   0  0  0  0  0  0
   -2.8219    3.2878   -0.9035 C   0  0  0  0  0  0
   -3.3471    2.1669   -1.5410 C   0  0  0  0  0  0
   -3.2173    0.9046   -0.9585 C   0  0  0  0  0  0
    0.8854   -0.4942    0.4676 N   0  0  0  0  0  0
    4.1748    0.1704   -1.0885 C   0  0  0  0  0  0
    5.4640    0.5868   -0.7132 C   0  0  0  0  0  0
    6.9443    0.4556   -1.5893 S   0  0  0  0  0  0
    8.8345    1.3890   -0.3294 H   0  0  0  0  0  0
    4.8205    1.8799    2.3622 H   0  0  0  0  0  0
    2.5372    1.1331    1.7490 H   0  0  0  0  0  0
   -1.0379   -2.2718    1.0369 H   0  0  0  0  0  0
   -2.3540   -1.8945   -1.6741 H   0  0  0  0  0  0
   -1.3271   -3.2211   -1.1866 H   0  0  0  0  0  0
   -4.0851   -3.1549   -0.9608 H   0  0  0  0  0  0
   -3.0359   -4.2842   -0.1246 H   0  0  0  0  0  0
   -3.0813   -3.0375    1.9278 H   0  0  0  0  0  0
   -4.7324   -3.0520    1.3311 H   0  0  0  0  0  0
   -2.0186   -0.4509    1.9386 H   0  0  0  0  0  0
   -1.5175    1.8030    1.8546 H   0  0  0  0  0  0
   -1.7693    4.0249    0.8229 H   0  0  0  0  0  0
   -2.9243    4.2700   -1.3578 H   0  0  0  0  0  0
   -3.8601    2.2733   -2.4924 H   0  0  0  0  0  0
   -3.6535    0.0459   -1.4610 H   0  0  0  0  0  0
    4.0125   -0.3119   -2.0494 H   0  0  0  0  0  0
   -3.7716   -1.2078    1.1001 N   0  3  0  0  0  0
   -4.3700   -0.9023    0.3237 H   0  0  0  0  0  0
   -4.1652   -0.8735    1.9876 H   0  0  0  0  0  0
  1  2  2  0  0  0
  1 25  1  0  0  0
  1 26  1  0  0  0
  2  3  1  0  0  0
  3  4  2  0  0  0
  3 24  1  0  0  0
  4  5  1  0  0  0
  4 27  1  0  0  0
  5  6  2  0  0  0
  5 28  1  0  0  0
  6  7  1  0  0  0
  6 23  1  0  0  0
  7  8  2  0  0  0
  7 22  1  0  0  0
  8  9  1  0  0  0
  9 10  1  0  0  0
 10 11  1  0  0  0
 10 22  2  0  0  0
 11 12  1  0  0  0
 11 15  1  0  0  0
 11 29  1  0  0  0
 12 13  1  0  0  0
 12 30  1  0  0  0
 12 31  1  0  0  0
 13 14  1  0  0  0
 13 32  1  0  0  0
 13 33  1  0  0  0
 14 34  1  0  0  0
 14 35  1  0  0  0
 14 43  1  0  0  0
 15 16  1  0  0  0
 15 36  1  0  0  0
 15 43  1  0  0  0
 16 17  2  0  0  0
 16 21  1  0  0  0
 17 18  1  0  0  0
 17 37  1  0  0  0
 18 19  2  0  0  0
 18 38  1  0  0  0
 19 20  1  0  0  0
 19 39  1  0  0  0
 20 21  2  0  0  0
 20 40  1  0  0  0
 21 41  1  0  0  0
 23 24  2  0  0  0
 23 42  1  0  0  0
 24 25  1  0  0  0
 43 44  1  0  0  0
 43 45  1  0  0  0
M  CHG  1  43   1
M  END
> <energy>
65.4503

> <i_ionizer_Ion_state_n>
1

> <i_ionizer_Tot_Q>
1

> <s_ionizer_Ion_centers>
43

> <s_ionizer_Ion_types>
N5

> <s_ionizer_Ion_ctrs_in>
15

> <r_ionizer_Ionization_penalty>
0.000148807

> <r_ionizer_Ionization_penalty_charging>
0.000148807

> <r_ionizer_Ionization_penalty_neutral>
0

$$$$
ZINC001211850233
                    3D
 Schrodinger Suite 2019-4.
 45 49  0  0  1  0            999 V2000
    6.9331   -2.5337    1.1673 C   0  0  0  0  0  0
    6.7605   -2.2674   -0.1068 N   0  0  0  0  0  0
    5.5702   -1.5809   -0.2769 C   0  0  0  0  0  0
    5.0512   -1.1188   -1.5012 C   0  0  0  0  0  0
    3.8299   -0.4312   -1.5280 C   0  0  0  0  0  0
    3.1101   -0.1979   -0.3502 C   0  0  0  0  0  0
    1.8200    0.4824   -0.3815 C   0  0  0  0  0  0
    1.3653    1.1960   -1.4234 N   0  0  0  0  0  0
    0.0980    1.6054   -1.0194 O   0  0  0  0  0  0
   -0.0998    1.0801    0.2240 C   0  0  0  0  0  0
   -1.4314    1.2937    0.8619 C   0  0  1  0  0  0
   -1.5485    2.7349    1.3828 C   0  0  0  0  0  0
   -2.9344    2.9799    1.9769 C   0  0  0  0  0  0
   -4.0395    2.6078    0.9909 C   0  0  0  0  0  0
   -2.6024    0.9823   -0.1092 C   0  0  1  0  0  0
   -2.5588   -0.4415   -0.6485 C   0  0  0  0  0  0
   -2.6908   -1.5512    0.2018 C   0  0  0  0  0  0
   -2.5986   -2.8490   -0.3015 C   0  0  0  0  0  0
   -2.3817   -3.0557   -1.6619 C   0  0  0  0  0  0
   -2.2672   -1.9661   -2.5216 C   0  0  0  0  0  0
   -2.3563   -0.6659   -2.0198 C   0  0  0  0  0  0
    0.9400    0.4205    0.6779 N   0  0  0  0  0  0
    3.6180   -0.6550    0.8784 C   0  0  0  0  0  0
    4.8462   -1.3377    0.8924 C   0  0  0  0  0  0
    5.7072   -1.9959    2.2338 S   0  0  0  0  0  0
    7.8030   -3.0639    1.5302 H   0  0  0  0  0  0
    5.6016   -1.3026   -2.4178 H   0  0  0  0  0  0
    3.4447   -0.0919   -2.4882 H   0  0  0  0  0  0
   -1.4919    0.6176    1.7273 H   0  0  0  0  0  0
   -1.3751    3.4498    0.5669 H   0  0  0  0  0  0
   -0.7793    2.9316    2.1398 H   0  0  0  0  0  0
   -3.0317    4.0330    2.2623 H   0  0  0  0  0  0
   -3.0478    2.3893    2.8952 H   0  0  0  0  0  0
   -5.0129    2.7258    1.4794 H   0  0  0  0  0  0
   -4.0301    3.2897    0.1330 H   0  0  0  0  0  0
   -2.5359    1.6654   -0.9686 H   0  0  0  0  0  0
   -2.8645   -1.4046    1.2659 H   0  0  0  0  0  0
   -2.6972   -3.6986    0.3696 H   0  0  0  0  0  0
   -2.2984   -4.0668   -2.0507 H   0  0  0  0  0  0
   -2.0994   -2.1275   -3.5831 H   0  0  0  0  0  0
   -2.2520    0.1693   -2.7090 H   0  0  0  0  0  0
    3.0752   -0.4843    1.8049 H   0  0  0  0  0  0
   -3.9189    1.2143    0.5406 N   0  3  0  0  0  0
   -4.0094    0.5898    1.3506 H   0  0  0  0  0  0
   -4.6672    1.0121   -0.1328 H   0  0  0  0  0  0
  1  2  2  0  0  0
  1 25  1  0  0  0
  1 26  1  0  0  0
  2  3  1  0  0  0
  3  4  2  0  0  0
  3 24  1  0  0  0
  4  5  1  0  0  0
  4 27  1  0  0  0
  5  6  2  0  0  0
  5 28  1  0  0  0
  6  7  1  0  0  0
  6 23  1  0  0  0
  7  8  2  0  0  0
  7 22  1  0  0  0
  8  9  1  0  0  0
  9 10  1  0  0  0
 10 11  1  0  0  0
 10 22  2  0  0  0
 11 12  1  0  0  0
 11 15  1  0  0  0
 11 29  1  0  0  0
 12 13  1  0  0  0
 12 30  1  0  0  0
 12 31  1  0  0  0
 13 14  1  0  0  0
 13 32  1  0  0  0
 13 33  1  0  0  0
 14 34  1  0  0  0
 14 35  1  0  0  0
 14 43  1  0  0  0
 15 16  1  0  0  0
 15 36  1  0  0  0
 15 43  1  0  0  0
 16 17  2  0  0  0
 16 21  1  0  0  0
 17 18  1  0  0  0
 17 37  1  0  0  0
 18 19  2  0  0  0
 18 38  1  0  0  0
 19 20  1  0  0  0
 19 39  1  0  0  0
 20 21  2  0  0  0
 20 40  1  0  0  0
 21 41  1  0  0  0
 23 24  2  0  0  0
 23 42  1  0  0  0
 24 25  1  0  0  0
 43 44  1  0  0  0
 43 45  1  0  0  0
M  CHG  1  43   1
M  END
> <energy>
54.4903

> <i_ionizer_Ion_state_n>
1

> <i_ionizer_Tot_Q>
1

> <s_ionizer_Ion_centers>
43

> <s_ionizer_Ion_types>
N5

> <s_ionizer_Ion_ctrs_in>
15

> <r_ionizer_Ionization_penalty>
0.000148807

> <r_ionizer_Ionization_penalty_charging>
0.000148807

> <r_ionizer_Ionization_penalty_neutral>
0

$$$$
ZINC001211850238
                    3D
 Schrodinger Suite 2019-4.
 45 49  0  0  1  0            999 V2000
    6.5613    1.3828   -2.1209 C   0  0  0  0  0  0
    6.7980    0.8371   -0.9502 N   0  0  0  0  0  0
    5.6039    0.4133   -0.3909 C   0  0  0  0  0  0
    5.4531   -0.2131    0.8617 C   0  0  0  0  0  0
    4.1766   -0.5835    1.3079 C   0  0  0  0  0  0
    3.0422   -0.3474    0.5227 C   0  0  0  0  0  0
    1.7121   -0.7254    0.9882 C   0  0  0  0  0  0
    1.4286   -1.1072    2.2442 N   0  0  0  0  0  0
    0.0534   -1.3300    2.2212 O   0  0  0  0  0  0
   -0.3605   -1.0684    0.9486 C   0  0  0  0  0  0
   -1.8134   -1.2596    0.6610 C   0  0  2  0  0  0
   -2.0777   -2.7151    0.2182 C   0  0  0  0  0  0
   -2.1929   -2.8224   -1.2989 C   0  0  0  0  0  0
   -3.3164   -1.9296   -1.8355 C   0  0  0  0  0  0
   -2.2967   -0.2364   -0.4084 C   0  0  2  0  0  0
   -2.4883    1.1494    0.2025 C   0  0  0  0  0  0
   -3.5674    1.4503    1.0492 C   0  0  0  0  0  0
   -3.6988    2.7209    1.6145 C   0  0  0  0  0  0
   -2.7514    3.7066    1.3494 C   0  0  0  0  0  0
   -1.6709    3.4235    0.5183 C   0  0  0  0  0  0
   -1.5396    2.1552   -0.0505 C   0  0  0  0  0  0
    0.6178   -0.7086    0.1505 N   0  0  0  0  0  0
    3.1820    0.2696   -0.7326 C   0  0  0  0  0  0
    4.4650    0.6443   -1.1652 C   0  0  0  0  0  0
    4.9290    1.4203   -2.6322 S   0  0  0  0  0  0
    7.3507    1.7914   -2.7365 H   0  0  0  0  0  0
    6.3295   -0.4012    1.4747 H   0  0  0  0  0  0
    4.0850   -1.0627    2.2817 H   0  0  0  0  0  0
   -2.3600   -1.1063    1.6018 H   0  0  0  0  0  0
   -1.3048   -3.4004    0.5870 H   0  0  0  0  0  0
   -3.0255   -3.0518    0.6595 H   0  0  0  0  0  0
   -2.3808   -3.8626   -1.5885 H   0  0  0  0  0  0
   -1.2385   -2.5336   -1.7567 H   0  0  0  0  0  0
   -4.2578   -2.4922   -1.8409 H   0  0  0  0  0  0
   -3.1057   -1.6796   -2.8816 H   0  0  0  0  0  0
   -1.5414   -0.1318   -1.2007 H   0  0  0  0  0  0
   -4.3200    0.7006    1.2759 H   0  0  0  0  0  0
   -4.5422    2.9415    2.2627 H   0  0  0  0  0  0
   -2.8552    4.6943    1.7907 H   0  0  0  0  0  0
   -0.9281    4.1900    0.3125 H   0  0  0  0  0  0
   -0.6842    1.9536   -0.6927 H   0  0  0  0  0  0
    2.3156    0.4644   -1.3599 H   0  0  0  0  0  0
   -3.5458   -0.6839   -1.0793 N   0  3  0  0  0  0
   -3.8620    0.0488   -1.7254 H   0  0  0  0  0  0
   -4.2687   -0.8493   -0.3692 H   0  0  0  0  0  0
  1  2  2  0  0  0
  1 25  1  0  0  0
  1 26  1  0  0  0
  2  3  1  0  0  0
  3  4  2  0  0  0
  3 24  1  0  0  0
  4  5  1  0  0  0
  4 27  1  0  0  0
  5  6  2  0  0  0
  5 28  1  0  0  0
  6  7  1  0  0  0
  6 23  1  0  0  0
  7  8  2  0  0  0
  7 22  1  0  0  0
  8  9  1  0  0  0
  9 10  1  0  0  0
 10 11  1  0  0  0
 10 22  2  0  0  0
 11 12  1  0  0  0
 11 15  1  0  0  0
 11 29  1  0  0  0
 12 13  1  0  0  0
 12 30  1  0  0  0
 12 31  1  0  0  0
 13 14  1  0  0  0
 13 32  1  0  0  0
 13 33  1  0  0  0
 14 34  1  0  0  0
 14 35  1  0  0  0
 14 43  1  0  0  0
 15 16  1  0  0  0
 15 36  1  0  0  0
 15 43  1  0  0  0
 16 17  2  0  0  0
 16 21  1  0  0  0
 17 18  1  0  0  0
 17 37  1  0  0  0
 18 19  2  0  0  0
 18 38  1  0  0  0
 19 20  1  0  0  0
 19 39  1  0  0  0
 20 21  2  0  0  0
 20 40  1  0  0  0
 21 41  1  0  0  0
 23 24  2  0  0  0
 23 42  1  0  0  0
 24 25  1  0  0  0
 43 44  1  0  0  0
 43 45  1  0  0  0
M  CHG  1  43   1
M  END
> <energy>
64.1762

> <i_ionizer_Ion_state_n>
1

> <i_ionizer_Tot_Q>
1

> <s_ionizer_Ion_centers>
43

> <s_ionizer_Ion_types>
N5

> <s_ionizer_Ion_ctrs_in>
15

> <r_ionizer_Ionization_penalty>
0.000148807

> <r_ionizer_Ionization_penalty_charging>
0.000148807

> <r_ionizer_Ionization_penalty_neutral>
0

$$$$
ZINC001211850239
                    3D
 Schrodinger Suite 2019-4.
 45 49  0  0  1  0            999 V2000
    5.8981    1.6853   -3.3242 C   0  0  0  0  0  0
    6.1663    0.5852   -2.6598 N   0  0  0  0  0  0
    4.9950    0.0736   -2.1244 C   0  0  0  0  0  0
    4.8841   -1.0989   -1.3499 C   0  0  0  0  0  0
    3.6324   -1.5004   -0.8681 C   0  0  0  0  0  0
    2.4905   -0.7460   -1.1455 C   0  0  0  0  0  0
    1.2087   -1.1558   -0.6116 C   0  0  0  0  0  0
    0.4632   -2.1366   -1.1379 N   0  0  0  0  0  0
   -0.6490   -2.1829   -0.2961 O   0  0  0  0  0  0
   -0.4521   -1.2294    0.6643 C   0  0  0  0  0  0
   -1.4791   -1.1583    1.7489 C   0  0  1  0  0  0
   -0.8226   -1.1205    3.1369 C   0  0  0  0  0  0
   -0.2423    0.2505    3.5033 C   0  0  0  0  0  0
   -0.7429    1.3930    2.6234 C   0  0  0  0  0  0
   -2.5032    0.0047    1.6188 C   0  0  2  0  0  0
   -3.0222    0.2293    0.2030 C   0  0  0  0  0  0
   -3.9174   -0.6932   -0.3679 C   0  0  0  0  0  0
   -4.4097   -0.5064   -1.6612 C   0  0  0  0  0  0
   -4.0193    0.6051   -2.4032 C   0  0  0  0  0  0
   -3.1227    1.5208   -1.8592 C   0  0  0  0  0  0
   -2.6221    1.3307   -0.5697 C   0  0  0  0  0  0
    0.6796   -0.5781    0.5164 N   0  0  0  0  0  0
    2.5759    0.4241   -1.9146 C   0  0  0  0  0  0
    3.8390    0.8122   -2.3949 C   0  0  0  0  0  0
    4.2608    2.1811   -3.3561 S   0  0  0  0  0  0
    6.6683    2.2545   -3.8282 H   0  0  0  0  0  0
    5.7737   -1.6808   -1.1306 H   0  0  0  0  0  0
    3.5602   -2.4041   -0.2654 H   0  0  0  0  0  0
   -2.0461   -2.1004    1.6974 H   0  0  0  0  0  0
   -1.5868   -1.3739    3.8833 H   0  0  0  0  0  0
   -0.0472   -1.8907    3.2303 H   0  0  0  0  0  0
    0.8520    0.2138    3.4414 H   0  0  0  0  0  0
   -0.4820    0.4592    4.5545 H   0  0  0  0  0  0
   -0.5769    2.3437    3.1420 H   0  0  0  0  0  0
   -0.1591    1.4682    1.7011 H   0  0  0  0  0  0
   -3.3876   -0.3345    2.1819 H   0  0  0  0  0  0
   -4.2423   -1.5662    0.1933 H   0  0  0  0  0  0
   -5.0984   -1.2273   -2.0913 H   0  0  0  0  0  0
   -4.4115    0.7582   -3.4053 H   0  0  0  0  0  0
   -2.8085    2.3857   -2.4372 H   0  0  0  0  0  0
   -1.9217    2.0578   -0.1648 H   0  0  0  0  0  0
    1.6921    1.0178   -2.1325 H   0  0  0  0  0  0
   -2.1771    1.2932    2.3095 N   0  3  0  0  0  0
   -2.7136    1.3480    3.1832 H   0  0  0  0  0  0
   -2.4390    2.0749    1.6974 H   0  0  0  0  0  0
  1  2  2  0  0  0
  1 25  1  0  0  0
  1 26  1  0  0  0
  2  3  1  0  0  0
  3  4  2  0  0  0
  3 24  1  0  0  0
  4  5  1  0  0  0
  4 27  1  0  0  0
  5  6  2  0  0  0
  5 28  1  0  0  0
  6  7  1  0  0  0
  6 23  1  0  0  0
  7  8  2  0  0  0
  7 22  1  0  0  0
  8  9  1  0  0  0
  9 10  1  0  0  0
 10 11  1  0  0  0
 10 22  2  0  0  0
 11 12  1  0  0  0
 11 15  1  0  0  0
 11 29  1  0  0  0
 12 13  1  0  0  0
 12 30  1  0  0  0
 12 31  1  0  0  0
 13 14  1  0  0  0
 13 32  1  0  0  0
 13 33  1  0  0  0
 14 34  1  0  0  0
 14 35  1  0  0  0
 14 43  1  0  0  0
 15 16  1  0  0  0
 15 36  1  0  0  0
 15 43  1  0  0  0
 16 17  2  0  0  0
 16 21  1  0  0  0
 17 18  1  0  0  0
 17 37  1  0  0  0
 18 19  2  0  0  0
 18 38  1  0  0  0
 19 20  1  0  0  0
 19 39  1  0  0  0
 20 21  2  0  0  0
 20 40  1  0  0  0
 21 41  1  0  0  0
 23 24  2  0  0  0
 23 42  1  0  0  0
 24 25  1  0  0  0
 43 44  1  0  0  0
 43 45  1  0  0  0
M  CHG  1  43   1
M  END
> <energy>
74.4465

> <i_ionizer_Ion_state_n>
1

> <i_ionizer_Tot_Q>
1

> <s_ionizer_Ion_centers>
43

> <s_ionizer_Ion_types>
N5

> <s_ionizer_Ion_ctrs_in>
15

> <r_ionizer_Ionization_penalty>
0.000148807

> <r_ionizer_Ionization_penalty_charging>
0.000148807

> <r_ionizer_Ionization_penalty_neutral>
0

$$$$
ZINC001211850249
                    3D
 Schrodinger Suite 2019-4.
 46 49  0  0  1  0            999 V2000
    6.8268    1.5423   -0.4356 C   0  0  0  0  0  0
    5.4674    0.9196   -0.4829 C   0  0  0  0  0  0
    5.0424    0.0031    0.4796 C   0  0  0  0  0  0
    5.8665   -0.3566    1.4747 F   0  0  0  0  0  0
    3.7642   -0.5530    0.4417 C   0  0  0  0  0  0
    2.8816   -0.2101   -0.5895 C   0  0  0  0  0  0
    1.5284   -0.7397   -0.6089 C   0  0  0  0  0  0
    0.8023   -0.8881   -1.7284 N   0  0  0  0  0  0
   -0.4409   -1.3027   -1.2607 O   0  0  0  0  0  0
   -0.3432   -1.3661    0.0976 C   0  0  0  0  0  0
   -1.5808   -1.6497    0.8776 C   0  0  2  0  0  0
   -2.5488   -2.6070    0.1721 C   0  0  0  0  0  0
   -3.8021   -2.8054    1.0200 C   0  0  0  0  0  0
   -4.4576   -1.4711    1.3661 C   0  0  0  0  0  0
   -2.2590   -0.3357    1.3623 C   0  0  1  0  0  0
   -2.3189    0.8170    0.3571 C   0  0  0  0  0  0
   -3.0317    0.7604   -0.8476 C   0  0  0  0  0  0
   -3.0146    1.8338   -1.7462 C   0  0  0  0  0  0
   -2.2829    2.9827   -1.4581 C   0  0  0  0  0  0
   -1.5624    3.0592   -0.2718 C   0  0  0  0  0  0
   -1.5851    1.9898    0.6264 C   0  0  0  0  0  0
    0.8590   -1.0773    0.5458 N   0  0  0  0  0  0
    3.3103    0.6807   -1.5817 C   0  0  0  0  0  0
    4.5869    1.2327   -1.5190 C   0  0  0  0  0  0
    4.9631    2.0935   -2.4747 F   0  0  0  0  0  0
    7.3113    1.3873    0.5342 H   0  0  0  0  0  0
    6.7527    2.6248   -0.5865 H   0  0  0  0  0  0
    7.4663    1.1175   -1.2154 H   0  0  0  0  0  0
    3.4668   -1.2515    1.2205 H   0  0  0  0  0  0
   -1.2542   -2.1808    1.7862 H   0  0  0  0  0  0
   -2.0604   -3.5756    0.0075 H   0  0  0  0  0  0
   -2.8302   -2.2318   -0.8172 H   0  0  0  0  0  0
   -3.5393   -3.3377    1.9446 H   0  0  0  0  0  0
   -4.5157   -3.4411    0.4822 H   0  0  0  0  0  0
   -5.3198   -1.6563    2.0176 H   0  0  0  0  0  0
   -4.8697   -1.0052    0.4679 H   0  0  0  0  0  0
   -1.5963    0.0332    2.1612 H   0  0  0  0  0  0
   -3.6115   -0.1146   -1.1198 H   0  0  0  0  0  0
   -3.5654    1.7676   -2.6806 H   0  0  0  0  0  0
   -2.2747    3.8169   -2.1541 H   0  0  0  0  0  0
   -0.9794    3.9466   -0.0439 H   0  0  0  0  0  0
   -1.0072    2.0751    1.5451 H   0  0  0  0  0  0
    2.6526    0.9697   -2.3981 H   0  0  0  0  0  0
   -3.5573   -0.5404    2.0858 N   0  3  0  0  0  0
   -4.0285    0.3667    2.1829 H   0  0  0  0  0  0
   -3.3600   -0.9250    3.0171 H   0  0  0  0  0  0
  1  2  1  0  0  0
  1 26  1  0  0  0
  1 27  1  0  0  0
  1 28  1  0  0  0
  2  3  2  0  0  0
  2 24  1  0  0  0
  3  4  1  0  0  0
  3  5  1  0  0  0
  5  6  2  0  0  0
  5 29  1  0  0  0
  6  7  1  0  0  0
  6 23  1  0  0  0
  7  8  2  0  0  0
  7 22  1  0  0  0
  8  9  1  0  0  0
  9 10  1  0  0  0
 10 11  1  0  0  0
 10 22  2  0  0  0
 11 12  1  0  0  0
 11 15  1  0  0  0
 11 30  1  0  0  0
 12 13  1  0  0  0
 12 31  1  0  0  0
 12 32  1  0  0  0
 13 14  1  0  0  0
 13 33  1  0  0  0
 13 34  1  0  0  0
 14 35  1  0  0  0
 14 36  1  0  0  0
 14 44  1  0  0  0
 15 16  1  0  0  0
 15 37  1  0  0  0
 15 44  1  0  0  0
 16 17  2  0  0  0
 16 21  1  0  0  0
 17 18  1  0  0  0
 17 38  1  0  0  0
 18 19  2  0  0  0
 18 39  1  0  0  0
 19 20  1  0  0  0
 19 40  1  0  0  0
 20 21  2  0  0  0
 20 41  1  0  0  0
 21 42  1  0  0  0
 23 24  2  0  0  0
 23 43  1  0  0  0
 24 25  1  0  0  0
 44 45  1  0  0  0
 44 46  1  0  0  0
M  CHG  1  44   1
M  END
> <energy>
43.7844

> <i_ionizer_Ion_state_n>
1

> <i_ionizer_Tot_Q>
1

> <s_ionizer_Ion_centers>
44

> <s_ionizer_Ion_types>
N5

> <s_ionizer_Ion_ctrs_in>
15

> <r_ionizer_Ionization_penalty>
0.000148807

> <r_ionizer_Ionization_penalty_charging>
0.000148807

> <r_ionizer_Ionization_penalty_neutral>
0

$$$$
ZINC001211850251
                    3D
 Schrodinger Suite 2019-4.
 46 49  0  0  1  0            999 V2000
    6.5574   -2.3402   -0.2464 C   0  0  0  0  0  0
    5.3154   -1.5291   -0.4469 C   0  0  0  0  0  0
    4.3210   -1.9298   -1.3411 C   0  0  0  0  0  0
    4.4785   -3.0516   -2.0632 F   0  0  0  0  0  0
    3.1366   -1.2104   -1.4836 C   0  0  0  0  0  0
    2.9027   -0.0822   -0.6863 C   0  0  0  0  0  0
    1.6054    0.5679   -0.7028 C   0  0  0  0  0  0
    0.8967    0.8340   -1.8102 N   0  0  0  0  0  0
   -0.3210    1.3020   -1.3139 O   0  0  0  0  0  0
   -0.2317    1.2478    0.0473 C   0  0  0  0  0  0
   -1.4596    1.5350    0.8485 C   0  0  1  0  0  0
   -1.6188    3.0496    1.0754 C   0  0  0  0  0  0
   -3.0720    3.4578    1.3474 C   0  0  0  0  0  0
   -3.8920    2.3201    1.9550 C   0  0  0  0  0  0
   -2.7593    0.9515    0.2369 C   0  0  1  0  0  0
   -2.6853   -0.5081   -0.1976 C   0  0  0  0  0  0
   -2.0330   -1.4894    0.5642 C   0  0  0  0  0  0
   -1.9098   -2.7959    0.0794 C   0  0  0  0  0  0
   -2.4563   -3.1369   -1.1517 C   0  0  0  0  0  0
   -3.1775   -2.1943   -1.8766 C   0  0  0  0  0  0
   -3.2946   -0.8884   -1.4031 C   0  0  0  0  0  0
    0.9516    0.8615    0.4731 N   0  0  0  0  0  0
    3.8977    0.3398    0.2065 C   0  0  0  0  0  0
    5.0893   -0.3749    0.3066 C   0  0  0  0  0  0
    6.0289    0.0593    1.1604 F   0  0  0  0  0  0
    6.6727   -3.0970   -1.0308 H   0  0  0  0  0  0
    7.4466   -1.6996   -0.2662 H   0  0  0  0  0  0
    6.5098   -2.8581    0.7182 H   0  0  0  0  0  0
    2.3854   -1.5704   -2.1807 H   0  0  0  0  0  0
   -1.3057    1.0709    1.8337 H   0  0  0  0  0  0
   -1.2529    3.6195    0.2102 H   0  0  0  0  0  0
   -0.9841    3.3439    1.9200 H   0  0  0  0  0  0
   -3.5400    3.7761    0.4068 H   0  0  0  0  0  0
   -3.0815    4.3311    2.0067 H   0  0  0  0  0  0
   -3.4828    2.0584    2.9379 H   0  0  0  0  0  0
   -4.9195    2.6547    2.1380 H   0  0  0  0  0  0
   -2.9675    1.5475   -0.6689 H   0  0  0  0  0  0
   -1.5989   -1.2481    1.5307 H   0  0  0  0  0  0
   -1.3757   -3.5378    0.6638 H   0  0  0  0  0  0
   -2.3304   -4.1442   -1.5389 H   0  0  0  0  0  0
   -3.6420   -2.4730   -2.8192 H   0  0  0  0  0  0
   -3.8490   -0.1622   -1.9954 H   0  0  0  0  0  0
    3.7448    1.2127    0.8385 H   0  0  0  0  0  0
   -3.9482    1.0908    1.1352 N   0  3  0  0  0  0
   -3.9860    0.2781    1.7615 H   0  0  0  0  0  0
   -4.7969    1.1178    0.5579 H   0  0  0  0  0  0
  1  2  1  0  0  0
  1 26  1  0  0  0
  1 27  1  0  0  0
  1 28  1  0  0  0
  2  3  2  0  0  0
  2 24  1  0  0  0
  3  4  1  0  0  0
  3  5  1  0  0  0
  5  6  2  0  0  0
  5 29  1  0  0  0
  6  7  1  0  0  0
  6 23  1  0  0  0
  7  8  2  0  0  0
  7 22  1  0  0  0
  8  9  1  0  0  0
  9 10  1  0  0  0
 10 11  1  0  0  0
 10 22  2  0  0  0
 11 12  1  0  0  0
 11 15  1  0  0  0
 11 30  1  0  0  0
 12 13  1  0  0  0
 12 31  1  0  0  0
 12 32  1  0  0  0
 13 14  1  0  0  0
 13 33  1  0  0  0
 13 34  1  0  0  0
 14 35  1  0  0  0
 14 36  1  0  0  0
 14 44  1  0  0  0
 15 16  1  0  0  0
 15 37  1  0  0  0
 15 44  1  0  0  0
 16 17  2  0  0  0
 16 21  1  0  0  0
 17 18  1  0  0  0
 17 38  1  0  0  0
 18 19  2  0  0  0
 18 39  1  0  0  0
 19 20  1  0  0  0
 19 40  1  0  0  0
 20 21  2  0  0  0
 20 41  1  0  0  0
 21 42  1  0  0  0
 23 24  2  0  0  0
 23 43  1  0  0  0
 24 25  1  0  0  0
 44 45  1  0  0  0
 44 46  1  0  0  0
M  CHG  1  44   1
M  END
> <energy>
45.9898

> <i_ionizer_Ion_state_n>
1

> <i_ionizer_Tot_Q>
1

> <s_ionizer_Ion_centers>
44

> <s_ionizer_Ion_types>
N5

> <s_ionizer_Ion_ctrs_in>
15

> <r_ionizer_Ionization_penalty>
0.000148807

> <r_ionizer_Ionization_penalty_charging>
0.000148807

> <r_ionizer_Ionization_penalty_neutral>
0

$$$$
ZINC001211850252
                    3D
 Schrodinger Suite 2019-4.
 46 49  0  0  1  0            999 V2000
    5.7965   -3.3673    1.7392 C   0  0  0  0  0  0
    4.7640   -2.3243    1.4498 C   0  0  0  0  0  0
    4.8930   -1.4493    0.3671 C   0  0  0  0  0  0
    5.9800   -1.5028   -0.4162 F   0  0  0  0  0  0
    3.9005   -0.5157    0.0699 C   0  0  0  0  0  0
    2.7542   -0.4436    0.8677 C   0  0  0  0  0  0
    1.6748    0.4541    0.5113 C   0  0  0  0  0  0
    1.2067    1.4238    1.3108 N   0  0  0  0  0  0
    0.1269    1.9429    0.5903 O   0  0  0  0  0  0
    0.0471    1.2150   -0.5628 C   0  0  0  0  0  0
   -1.1221    1.4510   -1.4587 C   0  0  2  0  0  0
   -1.0006    2.7902   -2.2044 C   0  0  0  0  0  0
   -2.2377    3.0430   -3.0746 C   0  0  0  0  0  0
   -3.5328    2.8851   -2.2789 C   0  0  0  0  0  0
   -2.4675    1.3933   -0.6865 C   0  0  2  0  0  0
   -2.6435    0.1004    0.1031 C   0  0  0  0  0  0
   -2.8208    0.1547    1.4965 C   0  0  0  0  0  0
   -2.8986   -1.0186    2.2509 C   0  0  0  0  0  0
   -2.8121   -2.2563    1.6231 C   0  0  0  0  0  0
   -2.6708   -2.3285    0.2388 C   0  0  0  0  0  0
   -2.5957   -1.1574   -0.5175 C   0  0  0  0  0  0
    1.0013    0.3200   -0.6777 N   0  0  0  0  0  0
    2.6121   -1.3039    1.9610 C   0  0  0  0  0  0
    3.6068   -2.2433    2.2261 C   0  0  0  0  0  0
    3.4266   -3.0981    3.2427 F   0  0  0  0  0  0
    5.9067   -3.5115    2.8200 H   0  0  0  0  0  0
    5.5007   -4.3187    1.2851 H   0  0  0  0  0  0
    6.7754   -3.0740    1.3471 H   0  0  0  0  0  0
    4.0270    0.1393   -0.7878 H   0  0  0  0  0  0
   -1.1113    0.6483   -2.2120 H   0  0  0  0  0  0
   -0.0988    2.7934   -2.8294 H   0  0  0  0  0  0
   -0.8905    3.6160   -1.4895 H   0  0  0  0  0  0
   -2.2425    2.3456   -3.9219 H   0  0  0  0  0  0
   -2.1843    4.0508   -3.5010 H   0  0  0  0  0  0
   -3.6214    3.6880   -1.5375 H   0  0  0  0  0  0
   -4.3915    2.9787   -2.9536 H   0  0  0  0  0  0
   -2.4886    2.2226    0.0347 H   0  0  0  0  0  0
   -2.8720    1.1120    2.0104 H   0  0  0  0  0  0
   -3.0146   -0.9615    3.3284 H   0  0  0  0  0  0
   -2.8555   -3.1692    2.2105 H   0  0  0  0  0  0
   -2.6109   -3.2950   -0.2535 H   0  0  0  0  0  0
   -2.4774   -1.2306   -1.5960 H   0  0  0  0  0  0
    1.7254   -1.2796    2.5890 H   0  0  0  0  0  0
   -3.6062    1.5726   -1.6199 N   0  3  0  0  0  0
   -4.4863    1.5072   -1.0952 H   0  0  0  0  0  0
   -3.5773    0.8347   -2.3333 H   0  0  0  0  0  0
  1  2  1  0  0  0
  1 26  1  0  0  0
  1 27  1  0  0  0
  1 28  1  0  0  0
  2  3  2  0  0  0
  2 24  1  0  0  0
  3  4  1  0  0  0
  3  5  1  0  0  0
  5  6  2  0  0  0
  5 29  1  0  0  0
  6  7  1  0  0  0
  6 23  1  0  0  0
  7  8  2  0  0  0
  7 22  1  0  0  0
  8  9  1  0  0  0
  9 10  1  0  0  0
 10 11  1  0  0  0
 10 22  2  0  0  0
 11 12  1  0  0  0
 11 15  1  0  0  0
 11 30  1  0  0  0
 12 13  1  0  0  0
 12 31  1  0  0  0
 12 32  1  0  0  0
 13 14  1  0  0  0
 13 33  1  0  0  0
 13 34  1  0  0  0
 14 35  1  0  0  0
 14 36  1  0  0  0
 14 44  1  0  0  0
 15 16  1  0  0  0
 15 37  1  0  0  0
 15 44  1  0  0  0
 16 17  2  0  0  0
 16 21  1  0  0  0
 17 18  1  0  0  0
 17 38  1  0  0  0
 18 19  2  0  0  0
 18 39  1  0  0  0
 19 20  1  0  0  0
 19 40  1  0  0  0
 20 21  2  0  0  0
 20 41  1  0  0  0
 21 42  1  0  0  0
 23 24  2  0  0  0
 23 43  1  0  0  0
 24 25  1  0  0  0
 44 45  1  0  0  0
 44 46  1  0  0  0
M  CHG  1  44   1
M  END
> <energy>
37.9287

> <i_ionizer_Ion_state_n>
1

> <i_ionizer_Tot_Q>
1

> <s_ionizer_Ion_centers>
44

> <s_ionizer_Ion_types>
N5

> <s_ionizer_Ion_ctrs_in>
15

> <r_ionizer_Ionization_penalty>
0.000148807

> <r_ionizer_Ionization_penalty_charging>
0.000148807

> <r_ionizer_Ionization_penalty_neutral>
0

$$$$
ZINC001211850254
                    3D
 Schrodinger Suite 2019-4.
 46 49  0  0  1  0            999 V2000
    0.8903   -6.3917   -1.0469 C   0  0  0  0  0  0
    0.3458   -4.9995   -0.9574 C   0  0  0  0  0  0
    1.0895   -3.9523   -0.4185 C   0  0  0  0  0  0
    2.3218   -4.1815    0.0569 F   0  0  0  0  0  0
    0.5880   -2.6506   -0.3675 C   0  0  0  0  0  0
   -0.6858   -2.3673   -0.8808 C   0  0  0  0  0  0
   -1.1918   -1.0023   -0.8768 C   0  0  0  0  0  0
   -2.1133   -0.5458   -1.7385 N   0  0  0  0  0  0
   -2.2252    0.8054   -1.4194 O   0  0  0  0  0  0
   -1.3733    1.0304   -0.3775 C   0  0  0  0  0  0
   -1.3272    2.4314    0.1516 C   0  0  1  0  0  0
   -2.5586    2.7259    1.0302 C   0  0  0  0  0  0
   -2.4680    2.0443    2.3976 C   0  0  0  0  0  0
   -1.1392    2.3426    3.0917 C   0  0  0  0  0  0
   -0.0338    2.7359    0.9593 C   0  0  2  0  0  0
    1.2364    2.5690    0.1250 C   0  0  0  0  0  0
    2.1431    1.5155    0.3255 C   0  0  0  0  0  0
    3.2816    1.3813   -0.4727 C   0  0  0  0  0  0
    3.5378    2.3038   -1.4827 C   0  0  0  0  0  0
    2.6561    3.3587   -1.6972 C   0  0  0  0  0  0
    1.5141    3.4903   -0.9014 C   0  0  0  0  0  0
   -0.7389   -0.0536    0.0132 N   0  0  0  0  0  0
   -1.4426   -3.4129   -1.4210 C   0  0  0  0  0  0
   -0.9255   -4.7071   -1.4505 C   0  0  0  0  0  0
   -1.6764   -5.6858   -1.9761 F   0  0  0  0  0  0
    1.0351   -6.6725   -2.0947 H   0  0  0  0  0  0
    1.8554   -6.4823   -0.5379 H   0  0  0  0  0  0
    0.2012   -7.1025   -0.5786 H   0  0  0  0  0  0
    1.2111   -1.8640    0.0523 H   0  0  0  0  0  0
   -1.3734    3.1053   -0.7151 H   0  0  0  0  0  0
   -3.4830    2.4231    0.5272 H   0  0  0  0  0  0
   -2.6308    3.8101    1.1864 H   0  0  0  0  0  0
   -3.2985    2.3802    3.0300 H   0  0  0  0  0  0
   -2.5850    0.9591    2.2782 H   0  0  0  0  0  0
   -1.0826    3.4009    3.3739 H   0  0  0  0  0  0
   -1.0738    1.7641    4.0218 H   0  0  0  0  0  0
   -0.0533    3.8032    1.2278 H   0  0  0  0  0  0
    1.9733    0.7792    1.1069 H   0  0  0  0  0  0
    3.9643    0.5521   -0.3057 H   0  0  0  0  0  0
    4.4259    2.2004   -2.0999 H   0  0  0  0  0  0
    2.8554    4.0805   -2.4834 H   0  0  0  0  0  0
    0.8374    4.3196   -1.0929 H   0  0  0  0  0  0
   -2.4363   -3.2376   -1.8250 H   0  0  0  0  0  0
    0.0145    1.9892    2.2479 N   0  3  0  0  0  0
    0.8814    2.2269    2.7441 H   0  0  0  0  0  0
   -0.0040    0.9809    2.0552 H   0  0  0  0  0  0
  1  2  1  0  0  0
  1 26  1  0  0  0
  1 27  1  0  0  0
  1 28  1  0  0  0
  2  3  2  0  0  0
  2 24  1  0  0  0
  3  4  1  0  0  0
  3  5  1  0  0  0
  5  6  2  0  0  0
  5 29  1  0  0  0
  6  7  1  0  0  0
  6 23  1  0  0  0
  7  8  2  0  0  0
  7 22  1  0  0  0
  8  9  1  0  0  0
  9 10  1  0  0  0
 10 11  1  0  0  0
 10 22  2  0  0  0
 11 12  1  0  0  0
 11 15  1  0  0  0
 11 30  1  0  0  0
 12 13  1  0  0  0
 12 31  1  0  0  0
 12 32  1  0  0  0
 13 14  1  0  0  0
 13 33  1  0  0  0
 13 34  1  0  0  0
 14 35  1  0  0  0
 14 36  1  0  0  0
 14 44  1  0  0  0
 15 16  1  0  0  0
 15 37  1  0  0  0
 15 44  1  0  0  0
 16 17  2  0  0  0
 16 21  1  0  0  0
 17 18  1  0  0  0
 17 38  1  0  0  0
 18 19  2  0  0  0
 18 39  1  0  0  0
 19 20  1  0  0  0
 19 40  1  0  0  0
 20 21  2  0  0  0
 20 41  1  0  0  0
 21 42  1  0  0  0
 23 24  2  0  0  0
 23 43  1  0  0  0
 24 25  1  0  0  0
 44 45  1  0  0  0
 44 46  1  0  0  0
M  CHG  1  44   1
M  END
> <energy>
40.2071

> <i_ionizer_Ion_state_n>
1

> <i_ionizer_Tot_Q>
1

> <s_ionizer_Ion_centers>
44

> <s_ionizer_Ion_types>
N5

> <s_ionizer_Ion_ctrs_in>
15

> <r_ionizer_Ionization_penalty>
0.000148807

> <r_ionizer_Ionization_penalty_charging>
0.000148807

> <r_ionizer_Ionization_penalty_neutral>
0

$$$$
ZINC001211850408
                    3D
 Schrodinger Suite 2019-4.
 49 53  0  0  1  0            999 V2000
   -3.8679    0.9408    1.9731 C   0  0  0  0  0  0
   -3.0798    0.1106    2.6175 N   0  0  0  0  0  0
   -2.8038   -0.8526    1.6777 C   0  0  0  0  0  0
   -3.4474   -0.5652    0.4936 C   0  0  0  0  0  0
   -3.5923   -1.1933   -0.8102 C   0  0  0  0  0  0
   -4.9000   -1.5619   -1.1926 C   0  0  0  0  0  0
   -5.1576   -2.1673   -2.4229 C   0  0  0  0  0  0
   -4.1114   -2.4097   -3.3019 C   0  0  0  0  0  0
   -2.8114   -2.0418   -2.9489 C   0  0  0  0  0  0
   -2.5279   -1.4329   -1.7056 C   0  0  0  0  0  0
   -1.1395   -1.0649   -1.4301 C   0  0  0  0  0  0
   -0.2688   -0.6998   -2.3889 N   0  0  0  0  0  0
    0.9201   -0.4848   -1.6994 O   0  0  0  0  0  0
    0.6578   -0.7393   -0.3867 C   0  0  0  0  0  0
    1.7820   -0.6243    0.5879 C   0  0  1  0  0  0
    2.5637   -1.9493    0.6157 C   0  0  0  0  0  0
    3.7714   -1.8550    1.5420 C   0  0  0  0  0  0
    4.6495   -0.6612    1.1829 C   0  0  0  0  0  0
    2.7391    0.5595    0.2799 C   0  0  1  0  0  0
    2.0354    1.9104    0.3272 C   0  0  0  0  0  0
    1.4826    2.4042    1.5203 C   0  0  0  0  0  0
    0.8317    3.6387    1.5463 C   0  0  0  0  0  0
    0.7288    4.3982    0.3830 C   0  0  0  0  0  0
    1.2797    3.9269   -0.8061 C   0  0  0  0  0  0
    1.9305    2.6919   -0.8346 C   0  0  0  0  0  0
   -0.5767   -1.1350   -0.1778 N   0  0  0  0  0  0
   -4.1529    0.5951    0.6881 O   0  0  0  0  0  0
   -4.3192    1.8518    2.3389 H   0  0  0  0  0  0
   -2.1695   -1.6989    1.9009 H   0  0  0  0  0  0
   -5.7350   -1.3726   -0.5188 H   0  0  0  0  0  0
   -6.1748   -2.4415   -2.6926 H   0  0  0  0  0  0
   -4.3027   -2.8774   -4.2644 H   0  0  0  0  0  0
   -2.0086   -2.2362   -3.6594 H   0  0  0  0  0  0
    1.3386   -0.4801    1.5830 H   0  0  0  0  0  0
    2.9059   -2.2060   -0.3960 H   0  0  0  0  0  0
    1.9121   -2.7696    0.9420 H   0  0  0  0  0  0
    3.4277   -1.7635    2.5802 H   0  0  0  0  0  0
    4.3566   -2.7801    1.4799 H   0  0  0  0  0  0
    5.4697   -0.5892    1.9052 H   0  0  0  0  0  0
    5.1050   -0.8040    0.1954 H   0  0  0  0  0  0
    3.1492    0.4293   -0.7318 H   0  0  0  0  0  0
    1.5625    1.8292    2.4405 H   0  0  0  0  0  0
    0.4049    4.0056    2.4756 H   0  0  0  0  0  0
    0.2190    5.3577    0.4033 H   0  0  0  0  0  0
    1.1996    4.5180   -1.7143 H   0  0  0  0  0  0
    2.3482    2.3417   -1.7763 H   0  0  0  0  0  0
    3.8899    0.5975    1.2247 N   0  3  0  0  0  0
    3.5372    0.7449    2.1776 H   0  0  0  0  0  0
    4.5112    1.3729    0.9660 H   0  0  0  0  0  0
  1  2  2  0  0  0
  1 27  1  0  0  0
  1 28  1  0  0  0
  2  3  1  0  0  0
  3  4  2  0  0  0
  3 29  1  0  0  0
  4  5  1  0  0  0
  4 27  1  0  0  0
  5  6  2  0  0  0
  5 10  1  0  0  0
  6  7  1  0  0  0
  6 30  1  0  0  0
  7  8  2  0  0  0
  7 31  1  0  0  0
  8  9  1  0  0  0
  8 32  1  0  0  0
  9 10  2  0  0  0
  9 33  1  0  0  0
 10 11  1  0  0  0
 11 12  2  0  0  0
 11 26  1  0  0  0
 12 13  1  0  0  0
 13 14  1  0  0  0
 14 15  1  0  0  0
 14 26  2  0  0  0
 15 16  1  0  0  0
 15 19  1  0  0  0
 15 34  1  0  0  0
 16 17  1  0  0  0
 16 35  1  0  0  0
 16 36  1  0  0  0
 17 18  1  0  0  0
 17 37  1  0  0  0
 17 38  1  0  0  0
 18 39  1  0  0  0
 18 40  1  0  0  0
 18 47  1  0  0  0
 19 20  1  0  0  0
 19 41  1  0  0  0
 19 47  1  0  0  0
 20 21  2  0  0  0
 20 25  1  0  0  0
 21 22  1  0  0  0
 21 42  1  0  0  0
 22 23  2  0  0  0
 22 43  1  0  0  0
 23 24  1  0  0  0
 23 44  1  0  0  0
 24 25  2  0  0  0
 24 45  1  0  0  0
 25 46  1  0  0  0
 47 48  1  0  0  0
 47 49  1  0  0  0
M  CHG  1  47   1
M  END
> <energy>
73.4596

> <i_ionizer_Ion_state_n>
1

> <i_ionizer_Tot_Q>
1

> <s_ionizer_Ion_centers>
47

> <s_ionizer_Ion_types>
N5

> <s_ionizer_Ion_ctrs_in>
19

> <r_ionizer_Ionization_penalty>
0.000148807

> <r_ionizer_Ionization_penalty_charging>
0.000148807

> <r_ionizer_Ionization_penalty_neutral>
0

$$$$
ZINC001211850409
                    3D
 Schrodinger Suite 2019-4.
 49 53  0  0  1  0            999 V2000
   -3.8772    1.3841   -2.5785 C   0  0  0  0  0  0
   -2.9938    2.0466   -1.8681 N   0  0  0  0  0  0
   -2.6566    1.1545   -0.8788 C   0  0  0  0  0  0
   -3.3653   -0.0198   -1.0284 C   0  0  0  0  0  0
   -3.4610   -1.2887   -0.3190 C   0  0  0  0  0  0
   -4.7409   -1.8401   -0.1109 C   0  0  0  0  0  0
   -4.9138   -3.0243    0.6087 C   0  0  0  0  0  0
   -3.8111   -3.6771    1.1486 C   0  0  0  0  0  0
   -2.5342   -3.1512    0.9508 C   0  0  0  0  0  0
   -2.3434   -1.9711    0.2046 C   0  0  0  0  0  0
   -0.9755   -1.5302   -0.0213 C   0  0  0  0  0  0
   -0.4537   -1.3157   -1.2384 N   0  0  0  0  0  0
    0.8533   -0.9126   -0.9675 O   0  0  0  0  0  0
    0.9899   -0.9290    0.3893 C   0  0  0  0  0  0
    2.2934   -0.4987    0.9772 C   0  0  1  0  0  0
    3.3624   -1.5917    0.8426 C   0  0  0  0  0  0
    4.0301   -1.5958   -0.5304 C   0  0  0  0  0  0
    4.5358   -0.2081   -0.9113 C   0  0  0  0  0  0
    2.8132    0.8638    0.4480 C   0  0  2  0  0  0
    1.7504    1.9594    0.4987 C   0  0  0  0  0  0
    1.1056    2.4242   -0.6602 C   0  0  0  0  0  0
    0.1381    3.4284   -0.5928 C   0  0  0  0  0  0
   -0.2194    3.9685    0.6395 C   0  0  0  0  0  0
    0.3883    3.5034    1.8034 C   0  0  0  0  0  0
    1.3669    2.5080    1.7345 C   0  0  0  0  0  0
   -0.0902   -1.3440    1.0144 N   0  0  0  0  0  0
   -4.1690    0.1341   -2.1292 O   0  0  0  0  0  0
   -4.4012    1.7122   -3.4642 H   0  0  0  0  0  0
   -1.9382    1.4048   -0.1113 H   0  0  0  0  0  0
   -5.6206   -1.3340   -0.5045 H   0  0  0  0  0  0
   -5.9111   -3.4330    0.7478 H   0  0  0  0  0  0
   -3.9426   -4.5970    1.7140 H   0  0  0  0  0  0
   -1.6752   -3.6792    1.3640 H   0  0  0  0  0  0
    2.1033   -0.3781    2.0536 H   0  0  0  0  0  0
    4.1376   -1.4118    1.5996 H   0  0  0  0  0  0
    2.9429   -2.5823    1.0537 H   0  0  0  0  0  0
    4.8670   -2.3028   -0.5223 H   0  0  0  0  0  0
    3.3241   -1.9526   -1.2894 H   0  0  0  0  0  0
    5.3465    0.1074   -0.2423 H   0  0  0  0  0  0
    4.9570   -0.2420   -1.9227 H   0  0  0  0  0  0
    3.6100    1.1929    1.1328 H   0  0  0  0  0  0
    1.3371    1.9956   -1.6340 H   0  0  0  0  0  0
   -0.3585    3.7637   -1.5002 H   0  0  0  0  0  0
   -0.9850    4.7391    0.6913 H   0  0  0  0  0  0
    0.0948    3.9114    2.7664 H   0  0  0  0  0  0
    1.8242    2.1565    2.6577 H   0  0  0  0  0  0
    3.4458    0.7784   -0.8977 N   0  3  0  0  0  0
    3.8244    1.6991   -1.1489 H   0  0  0  0  0  0
    2.7350    0.5015   -1.5850 H   0  0  0  0  0  0
  1  2  2  0  0  0
  1 27  1  0  0  0
  1 28  1  0  0  0
  2  3  1  0  0  0
  3  4  2  0  0  0
  3 29  1  0  0  0
  4  5  1  0  0  0
  4 27  1  0  0  0
  5  6  2  0  0  0
  5 10  1  0  0  0
  6  7  1  0  0  0
  6 30  1  0  0  0
  7  8  2  0  0  0
  7 31  1  0  0  0
  8  9  1  0  0  0
  8 32  1  0  0  0
  9 10  2  0  0  0
  9 33  1  0  0  0
 10 11  1  0  0  0
 11 12  2  0  0  0
 11 26  1  0  0  0
 12 13  1  0  0  0
 13 14  1  0  0  0
 14 15  1  0  0  0
 14 26  2  0  0  0
 15 16  1  0  0  0
 15 19  1  0  0  0
 15 34  1  0  0  0
 16 17  1  0  0  0
 16 35  1  0  0  0
 16 36  1  0  0  0
 17 18  1  0  0  0
 17 37  1  0  0  0
 17 38  1  0  0  0
 18 39  1  0  0  0
 18 40  1  0  0  0
 18 47  1  0  0  0
 19 20  1  0  0  0
 19 41  1  0  0  0
 19 47  1  0  0  0
 20 21  2  0  0  0
 20 25  1  0  0  0
 21 22  1  0  0  0
 21 42  1  0  0  0
 22 23  2  0  0  0
 22 43  1  0  0  0
 23 24  1  0  0  0
 23 44  1  0  0  0
 24 25  2  0  0  0
 24 45  1  0  0  0
 25 46  1  0  0  0
 47 48  1  0  0  0
 47 49  1  0  0  0
M  CHG  1  47   1
M  END
> <energy>
76.1147

> <i_ionizer_Ion_state_n>
1

> <i_ionizer_Tot_Q>
1

> <s_ionizer_Ion_centers>
47

> <s_ionizer_Ion_types>
N5

> <s_ionizer_Ion_ctrs_in>
19

> <r_ionizer_Ionization_penalty>
0.000148807

> <r_ionizer_Ionization_penalty_charging>
0.000148807

> <r_ionizer_Ionization_penalty_neutral>
0

$$$$
ZINC001211850410
                    3D
 Schrodinger Suite 2019-4.
 49 53  0  0  1  0            999 V2000
   -4.0450    2.1445   -2.5152 C   0  0  0  0  0  0
   -5.0588    2.5473   -1.7814 N   0  0  0  0  0  0
   -5.2509    1.5033   -0.9104 C   0  0  0  0  0  0
   -4.3406    0.5023   -1.1637 C   0  0  0  0  0  0
   -4.0799   -0.8218   -0.6308 C   0  0  0  0  0  0
   -5.0781   -1.7965   -0.8316 C   0  0  0  0  0  0
   -4.9084   -3.1091   -0.3902 C   0  0  0  0  0  0
   -3.7378   -3.4700    0.2626 C   0  0  0  0  0  0
   -2.7434   -2.5147    0.4787 C   0  0  0  0  0  0
   -2.8931   -1.1788    0.0464 C   0  0  0  0  0  0
   -1.8056   -0.2445    0.3561 C   0  0  0  0  0  0
   -1.8972    1.0945    0.3208 N   0  0  0  0  0  0
   -0.6385    1.5357    0.7037 O   0  0  0  0  0  0
    0.0956    0.4224    0.9782 C   0  0  0  0  0  0
    1.4896    0.6189    1.4687 C   0  0  2  0  0  0
    1.5219    1.6009    2.6499 C   0  0  0  0  0  0
    2.9442    1.7575    3.1969 C   0  0  0  0  0  0
    4.0162    1.3603    2.1819 C   0  0  0  0  0  0
    2.4333    1.1136    0.3290 C   0  0  2  0  0  0
    2.8478    0.0752   -0.7178 C   0  0  0  0  0  0
    2.6054   -1.3022   -0.6001 C   0  0  0  0  0  0
    3.0081   -2.1928   -1.6017 C   0  0  0  0  0  0
    3.6663   -1.7255   -2.7357 C   0  0  0  0  0  0
    3.9235   -0.3661   -2.8718 C   0  0  0  0  0  0
    3.5164    0.5232   -1.8750 C   0  0  0  0  0  0
   -0.5707   -0.6928    0.7930 N   0  0  0  0  0  0
   -3.5653    0.9054   -2.2172 O   0  0  0  0  0  0
   -3.5546    2.6697   -3.3224 H   0  0  0  0  0  0
   -6.0255    1.5257   -0.1572 H   0  0  0  0  0  0
   -5.9956   -1.5374   -1.3582 H   0  0  0  0  0  0
   -5.6865   -3.8475   -0.5654 H   0  0  0  0  0  0
   -3.5951   -4.4912    0.6071 H   0  0  0  0  0  0
   -1.8378   -2.8223    1.0005 H   0  0  0  0  0  0
    1.8409   -0.3423    1.8649 H   0  0  0  0  0  0
    1.1566    2.5856    2.3279 H   0  0  0  0  0  0
    0.8476    1.2769    3.4529 H   0  0  0  0  0  0
    3.0887    2.7979    3.5116 H   0  0  0  0  0  0
    3.0638    1.1400    4.0948 H   0  0  0  0  0  0
    4.1828    0.2763    2.1973 H   0  0  0  0  0  0
    4.9714    1.8156    2.4651 H   0  0  0  0  0  0
    1.8807    1.8776   -0.2384 H   0  0  0  0  0  0
    2.0971   -1.7246    0.2612 H   0  0  0  0  0  0
    2.8054   -3.2552   -1.4917 H   0  0  0  0  0  0
    3.9797   -2.4203   -3.5094 H   0  0  0  0  0  0
    4.4448    0.0060   -3.7496 H   0  0  0  0  0  0
    3.7362    1.5827   -1.9956 H   0  0  0  0  0  0
    3.6648    1.8096    0.8271 N   0  3  0  0  0  0
    3.4944    2.8220    0.8435 H   0  0  0  0  0  0
    4.4457    1.6043    0.1929 H   0  0  0  0  0  0
  1  2  2  0  0  0
  1 27  1  0  0  0
  1 28  1  0  0  0
  2  3  1  0  0  0
  3  4  2  0  0  0
  3 29  1  0  0  0
  4  5  1  0  0  0
  4 27  1  0  0  0
  5  6  2  0  0  0
  5 10  1  0  0  0
  6  7  1  0  0  0
  6 30  1  0  0  0
  7  8  2  0  0  0
  7 31  1  0  0  0
  8  9  1  0  0  0
  8 32  1  0  0  0
  9 10  2  0  0  0
  9 33  1  0  0  0
 10 11  1  0  0  0
 11 12  2  0  0  0
 11 26  1  0  0  0
 12 13  1  0  0  0
 13 14  1  0  0  0
 14 15  1  0  0  0
 14 26  2  0  0  0
 15 16  1  0  0  0
 15 19  1  0  0  0
 15 34  1  0  0  0
 16 17  1  0  0  0
 16 35  1  0  0  0
 16 36  1  0  0  0
 17 18  1  0  0  0
 17 37  1  0  0  0
 17 38  1  0  0  0
 18 39  1  0  0  0
 18 40  1  0  0  0
 18 47  1  0  0  0
 19 20  1  0  0  0
 19 41  1  0  0  0
 19 47  1  0  0  0
 20 21  2  0  0  0
 20 25  1  0  0  0
 21 22  1  0  0  0
 21 42  1  0  0  0
 22 23  2  0  0  0
 22 43  1  0  0  0
 23 24  1  0  0  0
 23 44  1  0  0  0
 24 25  2  0  0  0
 24 45  1  0  0  0
 25 46  1  0  0  0
 47 48  1  0  0  0
 47 49  1  0  0  0
M  CHG  1  47   1
M  END
> <energy>
85.7577

> <i_ionizer_Ion_state_n>
1

> <i_ionizer_Tot_Q>
1

> <s_ionizer_Ion_centers>
47

> <s_ionizer_Ion_types>
N5

> <s_ionizer_Ion_ctrs_in>
19

> <r_ionizer_Ionization_penalty>
0.000148807

> <r_ionizer_Ionization_penalty_charging>
0.000148807

> <r_ionizer_Ionization_penalty_neutral>
0

$$$$
ZINC001211850411
                    3D
 Schrodinger Suite 2019-4.
 49 53  0  0  1  0            999 V2000
   -2.0107   -1.7013    1.8364 C   0  0  0  0  0  0
   -2.3532   -2.6075    0.9458 N   0  0  0  0  0  0
   -2.9393   -1.8621   -0.0489 C   0  0  0  0  0  0
   -2.9266   -0.5296    0.2916 C   0  0  0  0  0  0
   -3.4045    0.6997   -0.3108 C   0  0  0  0  0  0
   -4.7358    1.0674   -0.0271 C   0  0  0  0  0  0
   -5.3013    2.2255   -0.5606 C   0  0  0  0  0  0
   -4.5400    3.0357   -1.3895 C   0  0  0  0  0  0
   -3.2171    2.6917   -1.6776 C   0  0  0  0  0  0
   -2.6216    1.5235   -1.1483 C   0  0  0  0  0  0
   -1.2241    1.2333   -1.4914 C   0  0  0  0  0  0
   -0.4418    2.0864   -2.1785 N   0  0  0  0  0  0
    0.7853    1.4371   -2.2571 O   0  0  0  0  0  0
    0.6318    0.2423   -1.6188 C   0  0  0  0  0  0
    1.8389   -0.6278   -1.5344 C   0  0  2  0  0  0
    1.4870   -2.0984   -1.2853 C   0  0  0  0  0  0
    2.7564   -2.9409   -1.1831 C   0  0  0  0  0  0
    3.7397   -2.3899   -0.1540 C   0  0  0  0  0  0
    2.8814   -0.0901   -0.5177 C   0  0  1  0  0  0
    2.3330    0.4140    0.8181 C   0  0  0  0  0  0
    1.7830   -0.4210    1.8032 C   0  0  0  0  0  0
    1.2690    0.1104    2.9908 C   0  0  0  0  0  0
    1.2721    1.4855    3.2064 C   0  0  0  0  0  0
    1.8102    2.3321    2.2438 C   0  0  0  0  0  0
    2.3431    1.8005    1.0677 C   0  0  0  0  0  0
   -0.5828    0.0603   -1.1612 N   0  0  0  0  0  0
   -2.3432   -0.4195    1.5233 O   0  0  0  0  0  0
   -1.5088   -1.8501    2.7826 H   0  0  0  0  0  0
   -3.3347   -2.3140   -0.9482 H   0  0  0  0  0  0
   -5.3442    0.4447    0.6266 H   0  0  0  0  0  0
   -6.3298    2.4914   -0.3263 H   0  0  0  0  0  0
   -4.9691    3.9404   -1.8120 H   0  0  0  0  0  0
   -2.6482    3.3529   -2.3313 H   0  0  0  0  0  0
    2.3160   -0.5964   -2.5255 H   0  0  0  0  0  0
    0.8881   -2.2105   -0.3755 H   0  0  0  0  0  0
    0.8678   -2.4779   -2.1064 H   0  0  0  0  0  0
    2.4904   -3.9705   -0.9219 H   0  0  0  0  0  0
    3.2456   -2.9830   -2.1646 H   0  0  0  0  0  0
    3.3636   -2.5612    0.8566 H   0  0  0  0  0  0
    4.6740   -2.9598   -0.2179 H   0  0  0  0  0  0
    3.3078    0.8010   -1.0036 H   0  0  0  0  0  0
    1.7278   -1.4953    1.6676 H   0  0  0  0  0  0
    0.8537   -0.5521    3.7450 H   0  0  0  0  0  0
    0.8559    1.8983    4.1216 H   0  0  0  0  0  0
    1.8116    3.4076    2.4001 H   0  0  0  0  0  0
    2.7509    2.4894    0.3292 H   0  0  0  0  0  0
    4.0893   -0.9666   -0.3676 N   0  3  0  0  0  0
    4.6355   -0.6384    0.4375 H   0  0  0  0  0  0
    4.6572   -0.8924   -1.2197 H   0  0  0  0  0  0
  1  2  2  0  0  0
  1 27  1  0  0  0
  1 28  1  0  0  0
  2  3  1  0  0  0
  3  4  2  0  0  0
  3 29  1  0  0  0
  4  5  1  0  0  0
  4 27  1  0  0  0
  5  6  2  0  0  0
  5 10  1  0  0  0
  6  7  1  0  0  0
  6 30  1  0  0  0
  7  8  2  0  0  0
  7 31  1  0  0  0
  8  9  1  0  0  0
  8 32  1  0  0  0
  9 10  2  0  0  0
  9 33  1  0  0  0
 10 11  1  0  0  0
 11 12  2  0  0  0
 11 26  1  0  0  0
 12 13  1  0  0  0
 13 14  1  0  0  0
 14 15  1  0  0  0
 14 26  2  0  0  0
 15 16  1  0  0  0
 15 19  1  0  0  0
 15 34  1  0  0  0
 16 17  1  0  0  0
 16 35  1  0  0  0
 16 36  1  0  0  0
 17 18  1  0  0  0
 17 37  1  0  0  0
 17 38  1  0  0  0
 18 39  1  0  0  0
 18 40  1  0  0  0
 18 47  1  0  0  0
 19 20  1  0  0  0
 19 41  1  0  0  0
 19 47  1  0  0  0
 20 21  2  0  0  0
 20 25  1  0  0  0
 21 22  1  0  0  0
 21 42  1  0  0  0
 22 23  2  0  0  0
 22 43  1  0  0  0
 23 24  1  0  0  0
 23 44  1  0  0  0
 24 25  2  0  0  0
 24 45  1  0  0  0
 25 46  1  0  0  0
 47 48  1  0  0  0
 47 49  1  0  0  0
M  CHG  1  47   1
M  END
> <energy>
78.5678

> <i_ionizer_Ion_state_n>
1

> <i_ionizer_Tot_Q>
1

> <s_ionizer_Ion_centers>
47

> <s_ionizer_Ion_types>
N5

> <s_ionizer_Ion_ctrs_in>
19

> <r_ionizer_Ionization_penalty>
0.000148807

> <r_ionizer_Ionization_penalty_charging>
0.000148807

> <r_ionizer_Ionization_penalty_neutral>
0

$$$$
ZINC001211850564
                    3D
 Schrodinger Suite 2019-4.
 47 50  0  0  1  0            999 V2000
    5.6027    1.8300   -2.8268 C   0  0  0  0  0  0
    5.9282    1.6591   -1.4451 O   0  0  0  0  0  0
    4.8456    1.1603   -0.7656 C   0  0  0  0  0  0
    4.4896   -0.1805   -0.9327 C   0  0  0  0  0  0
    3.3533   -0.6822   -0.2922 C   0  0  0  0  0  0
    2.5880    0.1469    0.5383 C   0  0  0  0  0  0
    1.3542   -0.3426    1.1283 C   0  0  0  0  0  0
    0.9093    0.0413    2.3349 N   0  0  0  0  0  0
   -0.3573   -0.5323    2.4082 O   0  0  0  0  0  0
   -0.5574   -1.1989    1.2322 C   0  0  0  0  0  0
   -1.9228   -1.7814    1.0362 C   0  0  2  0  0  0
   -1.8583   -3.2257    0.4991 C   0  0  0  0  0  0
   -2.3912   -3.3677   -0.9279 C   0  0  0  0  0  0
   -2.0185   -2.1716   -1.7915 C   0  0  0  0  0  0
   -2.8392   -0.8847    0.1532 C   0  0  1  0  0  0
   -2.9165    0.5509    0.6655 C   0  0  0  0  0  0
   -3.8478    0.9051    1.6545 C   0  0  0  0  0  0
   -3.8616    2.1971    2.1860 C   0  0  0  0  0  0
   -2.9474    3.1489    1.7369 C   0  0  0  0  0  0
   -2.0228    2.8150    0.7519 C   0  0  0  0  0  0
   -2.0076    1.5284    0.2183 C   0  0  0  0  0  0
    0.4971   -1.1758    0.4441 N   0  0  0  0  0  0
    2.9935    1.4731    0.7543 C   0  0  0  0  0  0
    4.1214    1.9777    0.1066 C   0  0  0  0  0  0
    4.5694    3.6208    0.3781 Cl  0  0  0  0  0  0
    5.5543    0.8643   -3.3425 H   0  0  0  0  0  0
    6.3993    2.4198   -3.2898 H   0  0  0  0  0  0
    4.6605    2.3759   -2.9566 H   0  0  0  0  0  0
    5.0876   -0.8306   -1.5633 H   0  0  0  0  0  0
    3.0716   -1.7240   -0.4398 H   0  0  0  0  0  0
   -2.3806   -1.8360    2.0361 H   0  0  0  0  0  0
   -0.8353   -3.6170    0.5439 H   0  0  0  0  0  0
   -2.4527   -3.8804    1.1480 H   0  0  0  0  0  0
   -3.4842   -3.4747   -0.9017 H   0  0  0  0  0  0
   -1.9973   -4.2898   -1.3711 H   0  0  0  0  0  0
   -0.9278   -2.0907   -1.8598 H   0  0  0  0  0  0
   -2.3736   -2.3258   -2.8156 H   0  0  0  0  0  0
   -3.8549   -1.3028    0.2458 H   0  0  0  0  0  0
   -4.5625    0.1774    2.0299 H   0  0  0  0  0  0
   -4.5760    2.4603    2.9611 H   0  0  0  0  0  0
   -2.9508    4.1504    2.1562 H   0  0  0  0  0  0
   -1.2975    3.5462    0.4065 H   0  0  0  0  0  0
   -1.2673    1.2755   -0.5405 H   0  0  0  0  0  0
    2.4060    2.1241    1.3995 H   0  0  0  0  0  0
   -2.5503   -0.8779   -1.3141 N   0  3  0  0  0  0
   -1.8586   -0.1450   -1.5104 H   0  0  0  0  0  0
   -3.4197   -0.6724   -1.8202 H   0  0  0  0  0  0
  1  2  1  0  0  0
  1 26  1  0  0  0
  1 27  1  0  0  0
  1 28  1  0  0  0
  2  3  1  0  0  0
  3  4  2  0  0  0
  3 24  1  0  0  0
  4  5  1  0  0  0
  4 29  1  0  0  0
  5  6  2  0  0  0
  5 30  1  0  0  0
  6  7  1  0  0  0
  6 23  1  0  0  0
  7  8  2  0  0  0
  7 22  1  0  0  0
  8  9  1  0  0  0
  9 10  1  0  0  0
 10 11  1  0  0  0
 10 22  2  0  0  0
 11 12  1  0  0  0
 11 15  1  0  0  0
 11 31  1  0  0  0
 12 13  1  0  0  0
 12 32  1  0  0  0
 12 33  1  0  0  0
 13 14  1  0  0  0
 13 34  1  0  0  0
 13 35  1  0  0  0
 14 36  1  0  0  0
 14 37  1  0  0  0
 14 45  1  0  0  0
 15 16  1  0  0  0
 15 38  1  0  0  0
 15 45  1  0  0  0
 16 17  2  0  0  0
 16 21  1  0  0  0
 17 18  1  0  0  0
 17 39  1  0  0  0
 18 19  2  0  0  0
 18 40  1  0  0  0
 19 20  1  0  0  0
 19 41  1  0  0  0
 20 21  2  0  0  0
 20 42  1  0  0  0
 21 43  1  0  0  0
 23 24  2  0  0  0
 23 44  1  0  0  0
 24 25  1  0  0  0
 45 46  1  0  0  0
 45 47  1  0  0  0
M  CHG  1  45   1
M  END
> <energy>
83.4273

> <i_ionizer_Ion_state_n>
1

> <i_ionizer_Tot_Q>
1

> <s_ionizer_Ion_centers>
45

> <s_ionizer_Ion_types>
N5

> <s_ionizer_Ion_ctrs_in>
15

> <r_ionizer_Ionization_penalty>
0.000148807

> <r_ionizer_Ionization_penalty_charging>
0.000148807

> <r_ionizer_Ionization_penalty_neutral>
0

$$$$
ZINC001211850565
                    3D
 Schrodinger Suite 2019-4.
 47 50  0  0  1  0            999 V2000
    6.8604    2.5291   -0.0549 C   0  0  0  0  0  0
    6.4576    1.3697   -0.7748 O   0  0  0  0  0  0
    5.2671    0.8120   -0.3817 C   0  0  0  0  0  0
    4.7789    0.8815    0.9252 C   0  0  0  0  0  0
    3.5464    0.3024    1.2509 C   0  0  0  0  0  0
    2.7823   -0.3435    0.2709 C   0  0  0  0  0  0
    1.4492   -0.8476    0.5701 C   0  0  0  0  0  0
    0.9638   -1.0067    1.8122 N   0  0  0  0  0  0
   -0.3620   -1.3772    1.6019 O   0  0  0  0  0  0
   -0.5493   -1.3917    0.2515 C   0  0  0  0  0  0
   -1.9304   -1.6283   -0.2543 C   0  0  1  0  0  0
   -2.3114   -3.1128   -0.1259 C   0  0  0  0  0  0
   -3.8066   -3.3593   -0.3453 C   0  0  0  0  0  0
   -4.5385   -2.1179   -0.8398 C   0  0  0  0  0  0
   -2.9732   -0.7269    0.4644 C   0  0  1  0  0  0
   -2.6755    0.7587    0.2889 C   0  0  0  0  0  0
   -2.7412    1.3592   -0.9796 C   0  0  0  0  0  0
   -2.4179    2.7064   -1.1545 C   0  0  0  0  0  0
   -2.0340    3.4794   -0.0612 C   0  0  0  0  0  0
   -1.9842    2.9067    1.2077 C   0  0  0  0  0  0
   -2.3030    1.5562    1.3839 C   0  0  0  0  0  0
    0.5414   -1.1280   -0.4261 N   0  0  0  0  0  0
    3.2908   -0.4452   -1.0293 C   0  0  0  0  0  0
    4.5278    0.1187   -1.3505 C   0  0  0  0  0  0
    5.0938   -0.0317   -2.9767 Cl  0  0  0  0  0  0
    7.2777    2.2523    0.9190 H   0  0  0  0  0  0
    7.6547    3.0154   -0.6304 H   0  0  0  0  0  0
    6.0405    3.2481    0.0596 H   0  0  0  0  0  0
    5.3321    1.3764    1.7175 H   0  0  0  0  0  0
    3.1770    0.3861    2.2718 H   0  0  0  0  0  0
   -1.9174   -1.3822   -1.3263 H   0  0  0  0  0  0
   -1.7300   -3.7025   -0.8455 H   0  0  0  0  0  0
   -2.0327   -3.4989    0.8634 H   0  0  0  0  0  0
   -3.9452   -4.1782   -1.0612 H   0  0  0  0  0  0
   -4.2574   -3.6988    0.5948 H   0  0  0  0  0  0
   -5.6076   -2.3345   -0.9443 H   0  0  0  0  0  0
   -4.1906   -1.8494   -1.8437 H   0  0  0  0  0  0
   -2.9196   -0.9563    1.5388 H   0  0  0  0  0  0
   -3.0464    0.7753   -1.8447 H   0  0  0  0  0  0
   -2.4663    3.1510   -2.1456 H   0  0  0  0  0  0
   -1.7734    4.5247   -0.1995 H   0  0  0  0  0  0
   -1.6895    3.5119    2.0627 H   0  0  0  0  0  0
   -2.2471    1.1325    2.3844 H   0  0  0  0  0  0
    2.7145   -0.9480   -1.8035 H   0  0  0  0  0  0
   -4.3973   -0.9668    0.0715 N   0  3  0  0  0  0
   -4.7566   -0.1275   -0.3983 H   0  0  0  0  0  0
   -4.9482   -1.1469    0.9190 H   0  0  0  0  0  0
  1  2  1  0  0  0
  1 26  1  0  0  0
  1 27  1  0  0  0
  1 28  1  0  0  0
  2  3  1  0  0  0
  3  4  2  0  0  0
  3 24  1  0  0  0
  4  5  1  0  0  0
  4 29  1  0  0  0
  5  6  2  0  0  0
  5 30  1  0  0  0
  6  7  1  0  0  0
  6 23  1  0  0  0
  7  8  2  0  0  0
  7 22  1  0  0  0
  8  9  1  0  0  0
  9 10  1  0  0  0
 10 11  1  0  0  0
 10 22  2  0  0  0
 11 12  1  0  0  0
 11 15  1  0  0  0
 11 31  1  0  0  0
 12 13  1  0  0  0
 12 32  1  0  0  0
 12 33  1  0  0  0
 13 14  1  0  0  0
 13 34  1  0  0  0
 13 35  1  0  0  0
 14 36  1  0  0  0
 14 37  1  0  0  0
 14 45  1  0  0  0
 15 16  1  0  0  0
 15 38  1  0  0  0
 15 45  1  0  0  0
 16 17  2  0  0  0
 16 21  1  0  0  0
 17 18  1  0  0  0
 17 39  1  0  0  0
 18 19  2  0  0  0
 18 40  1  0  0  0
 19 20  1  0  0  0
 19 41  1  0  0  0
 20 21  2  0  0  0
 20 42  1  0  0  0
 21 43  1  0  0  0
 23 24  2  0  0  0
 23 44  1  0  0  0
 24 25  1  0  0  0
 45 46  1  0  0  0
 45 47  1  0  0  0
M  CHG  1  45   1
M  END
> <energy>
77.8775

> <i_ionizer_Ion_state_n>
1

> <i_ionizer_Tot_Q>
1

> <s_ionizer_Ion_centers>
45

> <s_ionizer_Ion_types>
N5

> <s_ionizer_Ion_ctrs_in>
15

> <r_ionizer_Ionization_penalty>
0.000148807

> <r_ionizer_Ionization_penalty_charging>
0.000148807

> <r_ionizer_Ionization_penalty_neutral>
0

$$$$
ZINC001211850566
                    3D
 Schrodinger Suite 2019-4.
 47 50  0  0  1  0            999 V2000
    6.7861    0.6143    0.8742 C   0  0  0  0  0  0
    6.3642   -0.7322    1.1043 O   0  0  0  0  0  0
    5.0801   -0.8982    0.6544 C   0  0  0  0  0  0
    4.8730   -1.1704   -0.7000 C   0  0  0  0  0  0
    3.5731   -1.3224   -1.1877 C   0  0  0  0  0  0
    2.4719   -1.2223   -0.3246 C   0  0  0  0  0  0
    1.1063   -1.3027   -0.8265 C   0  0  0  0  0  0
    0.7725   -1.2513   -2.1279 N   0  0  0  0  0  0
   -0.6195   -1.1848   -2.1083 O   0  0  0  0  0  0
   -0.9912   -1.2378   -0.7973 C   0  0  0  0  0  0
   -2.4335   -1.0614   -0.4623 C   0  0  2  0  0  0
   -3.3288   -2.0053   -1.2846 C   0  0  0  0  0  0
   -4.7610   -1.4865   -1.4232 C   0  0  0  0  0  0
   -5.1296   -0.5298   -0.2981 C   0  0  0  0  0  0
   -2.8714    0.4222   -0.6214 C   0  0  2  0  0  0
   -2.0157    1.4195    0.1576 C   0  0  0  0  0  0
   -1.6626    1.2052    1.5000 C   0  0  0  0  0  0
   -0.8423    2.1101    2.1777 C   0  0  0  0  0  0
   -0.3778    3.2509    1.5285 C   0  0  0  0  0  0
   -0.7557    3.5046    0.2124 C   0  0  0  0  0  0
   -1.5714    2.5965   -0.4675 C   0  0  0  0  0  0
    0.0258   -1.3568    0.0234 N   0  0  0  0  0  0
    2.6961   -0.9949    1.0434 C   0  0  0  0  0  0
    3.9948   -0.8417    1.5317 C   0  0  0  0  0  0
    4.2156   -0.5499    3.2188 Cl  0  0  0  0  0  0
    7.7600    0.7495    1.3537 H   0  0  0  0  0  0
    6.0881    1.3359    1.3141 H   0  0  0  0  0  0
    6.9045    0.8066   -0.1979 H   0  0  0  0  0  0
    5.7210   -1.2565   -1.3734 H   0  0  0  0  0  0
    3.4278   -1.5124   -2.2508 H   0  0  0  0  0  0
   -2.5516   -1.3492    0.5918 H   0  0  0  0  0  0
   -2.9288   -2.1857   -2.2911 H   0  0  0  0  0  0
   -3.3396   -2.9868   -0.7916 H   0  0  0  0  0  0
   -4.8636   -0.9717   -2.3878 H   0  0  0  0  0  0
   -5.4586   -2.3306   -1.4483 H   0  0  0  0  0  0
   -5.0444   -1.0389    0.6694 H   0  0  0  0  0  0
   -6.1743   -0.2208   -0.4048 H   0  0  0  0  0  0
   -2.7514    0.6678   -1.6857 H   0  0  0  0  0  0
   -2.0092    0.3234    2.0322 H   0  0  0  0  0  0
   -0.5618    1.9210    3.2098 H   0  0  0  0  0  0
    0.2754    3.9453    2.0490 H   0  0  0  0  0  0
   -0.4138    4.4071   -0.2894 H   0  0  0  0  0  0
   -1.8575    2.8128   -1.4941 H   0  0  0  0  0  0
    1.8528   -0.9153    1.7274 H   0  0  0  0  0  0
   -4.3069    0.6985   -0.3011 N   0  3  0  0  0  0
   -4.6832    1.3456   -1.0039 H   0  0  0  0  0  0
   -4.3601    1.1332    0.6276 H   0  0  0  0  0  0
  1  2  1  0  0  0
  1 26  1  0  0  0
  1 27  1  0  0  0
  1 28  1  0  0  0
  2  3  1  0  0  0
  3  4  2  0  0  0
  3 24  1  0  0  0
  4  5  1  0  0  0
  4 29  1  0  0  0
  5  6  2  0  0  0
  5 30  1  0  0  0
  6  7  1  0  0  0
  6 23  1  0  0  0
  7  8  2  0  0  0
  7 22  1  0  0  0
  8  9  1  0  0  0
  9 10  1  0  0  0
 10 11  1  0  0  0
 10 22  2  0  0  0
 11 12  1  0  0  0
 11 15  1  0  0  0
 11 31  1  0  0  0
 12 13  1  0  0  0
 12 32  1  0  0  0
 12 33  1  0  0  0
 13 14  1  0  0  0
 13 34  1  0  0  0
 13 35  1  0  0  0
 14 36  1  0  0  0
 14 37  1  0  0  0
 14 45  1  0  0  0
 15 16  1  0  0  0
 15 38  1  0  0  0
 15 45  1  0  0  0
 16 17  2  0  0  0
 16 21  1  0  0  0
 17 18  1  0  0  0
 17 39  1  0  0  0
 18 19  2  0  0  0
 18 40  1  0  0  0
 19 20  1  0  0  0
 19 41  1  0  0  0
 20 21  2  0  0  0
 20 42  1  0  0  0
 21 43  1  0  0  0
 23 24  2  0  0  0
 23 44  1  0  0  0
 24 25  1  0  0  0
 45 46  1  0  0  0
 45 47  1  0  0  0
M  CHG  1  45   1
M  END
> <energy>
77.6355

> <i_ionizer_Ion_state_n>
1

> <i_ionizer_Tot_Q>
1

> <s_ionizer_Ion_centers>
45

> <s_ionizer_Ion_types>
N5

> <s_ionizer_Ion_ctrs_in>
15

> <r_ionizer_Ionization_penalty>
0.000148807

> <r_ionizer_Ionization_penalty_charging>
0.000148807

> <r_ionizer_Ionization_penalty_neutral>
0

$$$$
ZINC001211850567
                    3D
 Schrodinger Suite 2019-4.
 47 50  0  0  1  0            999 V2000
    6.5112    2.3307   -0.5006 C   0  0  0  0  0  0
    6.5824    0.9142   -0.3311 O   0  0  0  0  0  0
    5.3224    0.3951   -0.1778 C   0  0  0  0  0  0
    4.5364    0.1803   -1.3094 C   0  0  0  0  0  0
    3.2484   -0.3447   -1.1721 C   0  0  0  0  0  0
    2.7489   -0.6842    0.0943 C   0  0  0  0  0  0
    1.3846   -1.1778    0.2420 C   0  0  0  0  0  0
    0.8748   -1.6506    1.3901 N   0  0  0  0  0  0
   -0.4696   -1.8648    1.0929 O   0  0  0  0  0  0
   -0.6363   -1.5147   -0.2141 C   0  0  0  0  0  0
   -2.0136   -1.5253   -0.7788 C   0  0  1  0  0  0
   -2.9966   -2.4303   -0.0281 C   0  0  0  0  0  0
   -4.3898   -2.4061   -0.6735 C   0  0  0  0  0  0
   -4.5576   -1.3141   -1.7345 C   0  0  0  0  0  0
   -2.5789   -0.0832   -0.9573 C   0  0  2  0  0  0
   -2.2862    0.8575    0.2110 C   0  0  0  0  0  0
   -3.0784    0.8543    1.3706 C   0  0  0  0  0  0
   -2.7764    1.6941    2.4438 C   0  0  0  0  0  0
   -1.6726    2.5406    2.3819 C   0  0  0  0  0  0
   -0.8764    2.5582    1.2391 C   0  0  0  0  0  0
   -1.1807    1.7248    0.1613 C   0  0  0  0  0  0
    0.4786   -1.1287   -0.7947 N   0  0  0  0  0  0
    3.5668   -0.5090    1.2207 C   0  0  0  0  0  0
    4.8479    0.0279    1.0852 C   0  0  0  0  0  0
    5.8034    0.2488    2.5053 Cl  0  0  0  0  0  0
    6.0921    2.5850   -1.4791 H   0  0  0  0  0  0
    7.5288    2.7290   -0.4567 H   0  0  0  0  0  0
    5.9293    2.8079    0.2969 H   0  0  0  0  0  0
    4.9199    0.4241   -2.2962 H   0  0  0  0  0  0
    2.6373   -0.4880   -2.0625 H   0  0  0  0  0  0
   -1.9128   -1.9610   -1.7855 H   0  0  0  0  0  0
   -3.0853   -2.1240    1.0214 H   0  0  0  0  0  0
   -2.6198   -3.4613   -0.0060 H   0  0  0  0  0  0
   -5.1434   -2.2794    0.1147 H   0  0  0  0  0  0
   -4.5934   -3.3794   -1.1345 H   0  0  0  0  0  0
   -5.6224   -1.1930   -1.9603 H   0  0  0  0  0  0
   -4.0722   -1.6045   -2.6734 H   0  0  0  0  0  0
   -2.0736    0.3343   -1.8422 H   0  0  0  0  0  0
   -3.9431    0.1988    1.4365 H   0  0  0  0  0  0
   -3.4057    1.6816    3.3298 H   0  0  0  0  0  0
   -1.4335    3.1836    3.2239 H   0  0  0  0  0  0
   -0.0146    3.2183    1.1896 H   0  0  0  0  0  0
   -0.5354    1.7437   -0.7141 H   0  0  0  0  0  0
    3.1952   -0.7678    2.2105 H   0  0  0  0  0  0
   -4.0442   -0.0231   -1.2576 N   0  3  0  0  0  0
   -4.2063    0.6866   -1.9818 H   0  0  0  0  0  0
   -4.5483    0.2392   -0.4025 H   0  0  0  0  0  0
  1  2  1  0  0  0
  1 26  1  0  0  0
  1 27  1  0  0  0
  1 28  1  0  0  0
  2  3  1  0  0  0
  3  4  2  0  0  0
  3 24  1  0  0  0
  4  5  1  0  0  0
  4 29  1  0  0  0
  5  6  2  0  0  0
  5 30  1  0  0  0
  6  7  1  0  0  0
  6 23  1  0  0  0
  7  8  2  0  0  0
  7 22  1  0  0  0
  8  9  1  0  0  0
  9 10  1  0  0  0
 10 11  1  0  0  0
 10 22  2  0  0  0
 11 12  1  0  0  0
 11 15  1  0  0  0
 11 31  1  0  0  0
 12 13  1  0  0  0
 12 32  1  0  0  0
 12 33  1  0  0  0
 13 14  1  0  0  0
 13 34  1  0  0  0
 13 35  1  0  0  0
 14 36  1  0  0  0
 14 37  1  0  0  0
 14 45  1  0  0  0
 15 16  1  0  0  0
 15 38  1  0  0  0
 15 45  1  0  0  0
 16 17  2  0  0  0
 16 21  1  0  0  0
 17 18  1  0  0  0
 17 39  1  0  0  0
 18 19  2  0  0  0
 18 40  1  0  0  0
 19 20  1  0  0  0
 19 41  1  0  0  0
 20 21  2  0  0  0
 20 42  1  0  0  0
 21 43  1  0  0  0
 23 24  2  0  0  0
 23 44  1  0  0  0
 24 25  1  0  0  0
 45 46  1  0  0  0
 45 47  1  0  0  0
M  CHG  1  45   1
M  END
> <energy>
78.6923

> <i_ionizer_Ion_state_n>
1

> <i_ionizer_Tot_Q>
1

> <s_ionizer_Ion_centers>
45

> <s_ionizer_Ion_types>
N5

> <s_ionizer_Ion_ctrs_in>
15

> <r_ionizer_Ionization_penalty>
0.000148807

> <r_ionizer_Ionization_penalty_charging>
0.000148807

> <r_ionizer_Ionization_penalty_neutral>
0

$$$$
ZINC001211850586
                    3D
 Schrodinger Suite 2019-4.
 46 49  0  0  1  0            999 V2000
    5.5563   -1.3114   -1.3983 C   0  0  0  0  0  0
    4.7168   -1.3806   -0.1589 C   0  0  0  0  0  0
    3.5645   -0.5880   -0.0265 C   0  0  0  0  0  0
    2.7606   -0.6679    1.1248 C   0  0  0  0  0  0
    1.5618    0.1488    1.2329 C   0  0  0  0  0  0
    1.0347    0.5756    2.3916 N   0  0  0  0  0  0
   -0.1115    1.2628    2.0040 O   0  0  0  0  0  0
   -0.1622    1.1966    0.6437 C   0  0  0  0  0  0
   -1.3474    1.8208   -0.0105 C   0  0  1  0  0  0
   -0.9026    2.9835   -0.9121 C   0  0  0  0  0  0
   -2.0916    3.5636   -1.6742 C   0  0  0  0  0  0
   -2.8544    2.4800   -2.4296 C   0  0  0  0  0  0
   -2.1465    0.7779   -0.8433 C   0  0  1  0  0  0
   -2.6469   -0.4157   -0.0364 C   0  0  0  0  0  0
   -2.4570   -1.7124   -0.5433 C   0  0  0  0  0  0
   -2.8751   -2.8336    0.1747 C   0  0  0  0  0  0
   -3.4935   -2.6757    1.4111 C   0  0  0  0  0  0
   -3.7128   -1.3962    1.9189 C   0  0  0  0  0  0
   -3.3009   -0.2724    1.1974 C   0  0  0  0  0  0
    0.8609    0.5613    0.1169 N   0  0  0  0  0  0
    3.1245   -1.5699    2.1303 C   0  0  0  0  0  0
    2.3767   -1.7123    3.2348 F   0  0  0  0  0  0
    4.2503   -2.3768    2.0054 C   0  0  0  0  0  0
    5.0330   -2.2789    0.8630 C   0  0  0  0  0  0
    6.1043   -3.0750    0.7444 F   0  0  0  0  0  0
    5.5708   -0.2925   -1.7991 H   0  0  0  0  0  0
    5.1578   -1.9887   -2.1601 H   0  0  0  0  0  0
    6.5945   -1.5906   -1.1865 H   0  0  0  0  0  0
    3.2908    0.0990   -0.8266 H   0  0  0  0  0  0
   -1.9962    2.2436    0.7692 H   0  0  0  0  0  0
   -0.1460    2.6404   -1.6312 H   0  0  0  0  0  0
   -0.4274    3.7713   -0.3134 H   0  0  0  0  0  0
   -2.7632    4.0693   -0.9690 H   0  0  0  0  0  0
   -1.7367    4.3253   -2.3774 H   0  0  0  0  0  0
   -3.7372    2.9207   -2.9062 H   0  0  0  0  0  0
   -2.2371    2.0720   -3.2398 H   0  0  0  0  0  0
   -1.4635    0.3785   -1.6091 H   0  0  0  0  0  0
   -1.9790   -1.8578   -1.5103 H   0  0  0  0  0  0
   -2.7135   -3.8287   -0.2308 H   0  0  0  0  0  0
   -3.8098   -3.5484    1.9769 H   0  0  0  0  0  0
   -4.2050   -1.2737    2.8798 H   0  0  0  0  0  0
   -3.4956    0.7100    1.6179 H   0  0  0  0  0  0
    4.5059   -3.0845    2.7855 H   0  0  0  0  0  0
   -3.3016    1.3891   -1.5525 N   0  3  0  0  0  0
   -3.9626    1.7622   -0.8610 H   0  0  0  0  0  0
   -3.7678    0.6709   -2.1189 H   0  0  0  0  0  0
  1  2  1  0  0  0
  1 26  1  0  0  0
  1 27  1  0  0  0
  1 28  1  0  0  0
  2  3  2  0  0  0
  2 24  1  0  0  0
  3  4  1  0  0  0
  3 29  1  0  0  0
  4  5  1  0  0  0
  4 21  2  0  0  0
  5  6  2  0  0  0
  5 20  1  0  0  0
  6  7  1  0  0  0
  7  8  1  0  0  0
  8  9  1  0  0  0
  8 20  2  0  0  0
  9 10  1  0  0  0
  9 13  1  0  0  0
  9 30  1  0  0  0
 10 11  1  0  0  0
 10 31  1  0  0  0
 10 32  1  0  0  0
 11 12  1  0  0  0
 11 33  1  0  0  0
 11 34  1  0  0  0
 12 35  1  0  0  0
 12 36  1  0  0  0
 12 44  1  0  0  0
 13 14  1  0  0  0
 13 37  1  0  0  0
 13 44  1  0  0  0
 14 15  2  0  0  0
 14 19  1  0  0  0
 15 16  1  0  0  0
 15 38  1  0  0  0
 16 17  2  0  0  0
 16 39  1  0  0  0
 17 18  1  0  0  0
 17 40  1  0  0  0
 18 19  2  0  0  0
 18 41  1  0  0  0
 19 42  1  0  0  0
 21 22  1  0  0  0
 21 23  1  0  0  0
 23 24  2  0  0  0
 23 43  1  0  0  0
 24 25  1  0  0  0
 44 45  1  0  0  0
 44 46  1  0  0  0
M  CHG  1  44   1
M  END
> <energy>
51.2363

> <i_ionizer_Ion_state_n>
1

> <i_ionizer_Tot_Q>
1

> <s_ionizer_Ion_centers>
44

> <s_ionizer_Ion_types>
N5

> <s_ionizer_Ion_ctrs_in>
13

> <r_ionizer_Ionization_penalty>
0.000148807

> <r_ionizer_Ionization_penalty_charging>
0.000148807

> <r_ionizer_Ionization_penalty_neutral>
0

$$$$
ZINC001211850587
                    3D
 Schrodinger Suite 2019-4.
 46 49  0  0  1  0            999 V2000
    5.7161   -1.9736   -1.0704 C   0  0  0  0  0  0
    4.7842   -1.8808    0.1000 C   0  0  0  0  0  0
    3.6759   -1.0198    0.0670 C   0  0  0  0  0  0
    2.7788   -0.9509    1.1480 C   0  0  0  0  0  0
    1.6276   -0.0659    1.0745 C   0  0  0  0  0  0
    1.0253    0.4922    2.1361 N   0  0  0  0  0  0
   -0.0260    1.2168    1.5827 O   0  0  0  0  0  0
    0.0472    1.0341    0.2348 C   0  0  0  0  0  0
   -0.9946    1.6799   -0.6126 C   0  0  2  0  0  0
   -0.7699    3.1988   -0.6679 C   0  0  0  0  0  0
   -1.8537    3.8591   -1.5133 C   0  0  0  0  0  0
   -3.2441    3.4937   -1.0025 C   0  0  0  0  0  0
   -2.4383    1.3624   -0.1274 C   0  0  2  0  0  0
   -2.7936   -0.1198   -0.0719 C   0  0  0  0  0  0
   -2.2918   -1.0598   -0.9866 C   0  0  0  0  0  0
   -2.6438   -2.4083   -0.8909 C   0  0  0  0  0  0
   -3.5172   -2.8358    0.1063 C   0  0  0  0  0  0
   -4.0497   -1.9132    1.0020 C   0  0  0  0  0  0
   -3.6932   -0.5671    0.9113 C   0  0  0  0  0  0
    1.0641    0.2878   -0.1352 N   0  0  0  0  0  0
    3.0083   -1.7700    2.2574 C   0  0  0  0  0  0
    2.1712   -1.7670    3.3053 F   0  0  0  0  0  0
    4.0916   -2.6437    2.2974 C   0  0  0  0  0  0
    4.9640   -2.6980    1.2187 C   0  0  0  0  0  0
    5.9909   -3.5577    1.2614 F   0  0  0  0  0  0
    5.7890   -1.0110   -1.5873 H   0  0  0  0  0  0
    5.3540   -2.7273   -1.7758 H   0  0  0  0  0  0
    6.7279   -2.2442   -0.7495 H   0  0  0  0  0  0
    3.5082   -0.3980   -0.8119 H   0  0  0  0  0  0
   -0.8675    1.3041   -1.6367 H   0  0  0  0  0  0
    0.2177    3.4244   -1.0881 H   0  0  0  0  0  0
   -0.7819    3.6224    0.3450 H   0  0  0  0  0  0
   -1.7236    4.9470   -1.4990 H   0  0  0  0  0  0
   -1.7470    3.5402   -2.5585 H   0  0  0  0  0  0
   -3.4053    3.9247   -0.0066 H   0  0  0  0  0  0
   -4.0022    3.9323   -1.6594 H   0  0  0  0  0  0
   -2.5317    1.7449    0.9009 H   0  0  0  0  0  0
   -1.6201   -0.7679   -1.7880 H   0  0  0  0  0  0
   -2.2324   -3.1270   -1.5945 H   0  0  0  0  0  0
   -3.7870   -3.8853    0.1814 H   0  0  0  0  0  0
   -4.7450   -2.2386    1.7706 H   0  0  0  0  0  0
   -4.1292    0.1409    1.6148 H   0  0  0  0  0  0
    4.2423   -3.2843    3.1583 H   0  0  0  0  0  0
   -3.4714    2.0414   -0.9590 N   0  3  0  0  0  0
   -4.3986    1.8589   -0.5574 H   0  0  0  0  0  0
   -3.4324    1.6671   -1.9143 H   0  0  0  0  0  0
  1  2  1  0  0  0
  1 26  1  0  0  0
  1 27  1  0  0  0
  1 28  1  0  0  0
  2  3  2  0  0  0
  2 24  1  0  0  0
  3  4  1  0  0  0
  3 29  1  0  0  0
  4  5  1  0  0  0
  4 21  2  0  0  0
  5  6  2  0  0  0
  5 20  1  0  0  0
  6  7  1  0  0  0
  7  8  1  0  0  0
  8  9  1  0  0  0
  8 20  2  0  0  0
  9 10  1  0  0  0
  9 13  1  0  0  0
  9 30  1  0  0  0
 10 11  1  0  0  0
 10 31  1  0  0  0
 10 32  1  0  0  0
 11 12  1  0  0  0
 11 33  1  0  0  0
 11 34  1  0  0  0
 12 35  1  0  0  0
 12 36  1  0  0  0
 12 44  1  0  0  0
 13 14  1  0  0  0
 13 37  1  0  0  0
 13 44  1  0  0  0
 14 15  2  0  0  0
 14 19  1  0  0  0
 15 16  1  0  0  0
 15 38  1  0  0  0
 16 17  2  0  0  0
 16 39  1  0  0  0
 17 18  1  0  0  0
 17 40  1  0  0  0
 18 19  2  0  0  0
 18 41  1  0  0  0
 19 42  1  0  0  0
 21 22  1  0  0  0
 21 23  1  0  0  0
 23 24  2  0  0  0
 23 43  1  0  0  0
 24 25  1  0  0  0
 44 45  1  0  0  0
 44 46  1  0  0  0
M  CHG  1  44   1
M  END
> <energy>
51.4643

> <i_ionizer_Ion_state_n>
1

> <i_ionizer_Tot_Q>
1

> <s_ionizer_Ion_centers>
44

> <s_ionizer_Ion_types>
N5

> <s_ionizer_Ion_ctrs_in>
13

> <r_ionizer_Ionization_penalty>
0.000148807

> <r_ionizer_Ionization_penalty_charging>
0.000148807

> <r_ionizer_Ionization_penalty_neutral>
0

$$$$
ZINC001211850588
                    3D
 Schrodinger Suite 2019-4.
 46 49  0  0  1  0            999 V2000
    4.6923    1.4645   -2.0878 C   0  0  0  0  0  0
    4.2547    0.5315   -0.9997 C   0  0  0  0  0  0
    2.9997    0.6694   -0.3856 C   0  0  0  0  0  0
    2.5832   -0.2285    0.6151 C   0  0  0  0  0  0
    1.2738   -0.0699    1.2331 C   0  0  0  0  0  0
    0.8884   -0.6742    2.3678 N   0  0  0  0  0  0
   -0.4392   -0.2961    2.5165 O   0  0  0  0  0  0
   -0.7329    0.5203    1.4632 C   0  0  0  0  0  0
   -2.1517    0.9825    1.3726 C   0  0  1  0  0  0
   -2.2519    2.5078    1.2524 C   0  0  0  0  0  0
   -1.8733    3.0310   -0.1343 C   0  0  0  0  0  0
   -1.9989    1.9843   -1.2403 C   0  0  0  0  0  0
   -2.9733    0.2921    0.2394 C   0  0  2  0  0  0
   -2.6128   -1.1745    0.0183 C   0  0  0  0  0  0
   -2.9938   -2.1290    0.9801 C   0  0  0  0  0  0
   -2.6288   -3.4707    0.8479 C   0  0  0  0  0  0
   -1.8761   -3.8823   -0.2481 C   0  0  0  0  0  0
   -1.4934   -2.9544   -1.2140 C   0  0  0  0  0  0
   -1.8604   -1.6116   -1.0829 C   0  0  0  0  0  0
    0.3002    0.7407    0.6815 N   0  0  0  0  0  0
    3.4446   -1.2759    0.9679 C   0  0  0  0  0  0
    3.0942   -2.1815    1.8937 F   0  0  0  0  0  0
    4.6829   -1.4356    0.3559 C   0  0  0  0  0  0
    5.0747   -0.5344   -0.6223 C   0  0  0  0  0  0
    6.2649   -0.7020   -1.2138 F   0  0  0  0  0  0
    4.4304    1.0474   -3.0649 H   0  0  0  0  0  0
    4.2181    2.4453   -1.9814 H   0  0  0  0  0  0
    5.7749    1.6241   -2.0488 H   0  0  0  0  0  0
    2.3414    1.4833   -0.6883 H   0  0  0  0  0  0
   -2.6281    0.7137    2.3273 H   0  0  0  0  0  0
   -3.2931    2.7978    1.4481 H   0  0  0  0  0  0
   -1.6495    3.0111    2.0171 H   0  0  0  0  0  0
   -0.8424    3.4041   -0.1185 H   0  0  0  0  0  0
   -2.5036    3.8986   -0.3661 H   0  0  0  0  0  0
   -1.0671    1.4231   -1.3557 H   0  0  0  0  0  0
   -2.1471    2.4959   -2.1973 H   0  0  0  0  0  0
   -4.0095    0.2608    0.6132 H   0  0  0  0  0  0
   -3.5709   -1.8302    1.8529 H   0  0  0  0  0  0
   -2.9227   -4.1917    1.6066 H   0  0  0  0  0  0
   -1.5895   -4.9256   -0.3507 H   0  0  0  0  0  0
   -0.9048   -3.2739   -2.0692 H   0  0  0  0  0  0
   -1.5413   -0.9073   -1.8459 H   0  0  0  0  0  0
    5.3288   -2.2589    0.6357 H   0  0  0  0  0  0
   -3.1309    1.0665   -1.0324 N   0  3  0  0  0  0
   -3.9999    1.6115   -0.9874 H   0  0  0  0  0  0
   -3.1789    0.4102   -1.8206 H   0  0  0  0  0  0
  1  2  1  0  0  0
  1 26  1  0  0  0
  1 27  1  0  0  0
  1 28  1  0  0  0
  2  3  2  0  0  0
  2 24  1  0  0  0
  3  4  1  0  0  0
  3 29  1  0  0  0
  4  5  1  0  0  0
  4 21  2  0  0  0
  5  6  2  0  0  0
  5 20  1  0  0  0
  6  7  1  0  0  0
  7  8  1  0  0  0
  8  9  1  0  0  0
  8 20  2  0  0  0
  9 10  1  0  0  0
  9 13  1  0  0  0
  9 30  1  0  0  0
 10 11  1  0  0  0
 10 31  1  0  0  0
 10 32  1  0  0  0
 11 12  1  0  0  0
 11 33  1  0  0  0
 11 34  1  0  0  0
 12 35  1  0  0  0
 12 36  1  0  0  0
 12 44  1  0  0  0
 13 14  1  0  0  0
 13 37  1  0  0  0
 13 44  1  0  0  0
 14 15  2  0  0  0
 14 19  1  0  0  0
 15 16  1  0  0  0
 15 38  1  0  0  0
 16 17  2  0  0  0
 16 39  1  0  0  0
 17 18  1  0  0  0
 17 40  1  0  0  0
 18 19  2  0  0  0
 18 41  1  0  0  0
 19 42  1  0  0  0
 21 22  1  0  0  0
 21 23  1  0  0  0
 23 24  2  0  0  0
 23 43  1  0  0  0
 24 25  1  0  0  0
 44 45  1  0  0  0
 44 46  1  0  0  0
M  CHG  1  44   1
M  END
> <energy>
62.7733

> <i_ionizer_Ion_state_n>
1

> <i_ionizer_Tot_Q>
1

> <s_ionizer_Ion_centers>
44

> <s_ionizer_Ion_types>
N5

> <s_ionizer_Ion_ctrs_in>
13

> <r_ionizer_Ionization_penalty>
0.000148807

> <r_ionizer_Ionization_penalty_charging>
0.000148807

> <r_ionizer_Ionization_penalty_neutral>
0

$$$$
ZINC001211850589
                    3D
 Schrodinger Suite 2019-4.
 46 49  0  0  1  0            999 V2000
    2.3759    3.7291   -1.9903 C   0  0  0  0  0  0
    1.6707    3.9896   -0.6885 C   0  0  0  0  0  0
    1.5089    2.9161    0.1927 C   0  0  0  0  0  0
    0.6657    3.0111    1.3092 C   0  0  0  0  0  0
    0.1830    1.7675    1.8773 C   0  0  0  0  0  0
   -0.4684    1.5888    3.0337 N   0  0  0  0  0  0
   -1.0401    0.3098    2.8916 O   0  0  0  0  0  0
   -0.6864   -0.1387    1.6514 C   0  0  0  0  0  0
   -1.5711   -1.1516    1.0265 C   0  0  2  0  0  0
   -1.9245   -2.3463    1.9053 C   0  0  0  0  0  0
   -3.0304   -3.1459    1.2248 C   0  0  0  0  0  0
   -2.5770   -3.5892   -0.1651 C   0  0  0  0  0  0
   -1.2066   -1.5194   -0.4459 C   0  0  1  0  0  0
    0.2173   -1.9288   -0.8522 C   0  0  0  0  0  0
    0.6216   -1.6804   -2.1871 C   0  0  0  0  0  0
    1.9065   -1.9918   -2.6463 C   0  0  0  0  0  0
    2.8362   -2.5470   -1.7763 C   0  0  0  0  0  0
    2.4591   -2.8093   -0.4601 C   0  0  0  0  0  0
    1.1647   -2.5108    0.0008 C   0  0  0  0  0  0
    0.1649    0.6597    1.0562 N   0  0  0  0  0  0
    0.1293    4.2570    1.6339 C   0  0  0  0  0  0
   -0.6638    4.4300    2.6990 F   0  0  0  0  0  0
    0.3582    5.3632    0.8080 C   0  0  0  0  0  0
    1.0798    5.2035   -0.3687 C   0  0  0  0  0  0
    1.1463    6.2318   -1.2304 F   0  0  0  0  0  0
    1.8289    2.9520   -2.5351 H   0  0  0  0  0  0
    3.3938    3.3765   -1.8069 H   0  0  0  0  0  0
    2.4179    4.6165   -2.6256 H   0  0  0  0  0  0
    1.9554    1.9581   -0.0671 H   0  0  0  0  0  0
   -2.5169   -0.5978    0.9263 H   0  0  0  0  0  0
   -1.0496   -2.9802    2.0911 H   0  0  0  0  0  0
   -2.2762   -2.0146    2.8913 H   0  0  0  0  0  0
   -3.9338   -2.5259    1.1445 H   0  0  0  0  0  0
   -3.3025   -4.0093    1.8343 H   0  0  0  0  0  0
   -3.4047   -4.1429   -0.6322 H   0  0  0  0  0  0
   -1.7255   -4.2862   -0.0945 H   0  0  0  0  0  0
   -1.3548   -0.5645   -0.9929 H   0  0  0  0  0  0
   -0.0814   -1.2269   -2.8877 H   0  0  0  0  0  0
    2.1897   -1.8087   -3.6768 H   0  0  0  0  0  0
    3.8394   -2.7884   -2.1289 H   0  0  0  0  0  0
    3.1897   -3.2666    0.2121 H   0  0  0  0  0  0
    0.9291   -2.7435    1.0339 H   0  0  0  0  0  0
   -0.1153    6.3131    1.0283 H   0  0  0  0  0  0
   -2.2416   -2.4437   -1.0603 N   0  3  0  0  0  0
   -1.8724   -2.8125   -1.9446 H   0  0  0  0  0  0
   -3.0972   -1.9065   -1.2442 H   0  0  0  0  0  0
  1  2  1  0  0  0
  1 26  1  0  0  0
  1 27  1  0  0  0
  1 28  1  0  0  0
  2  3  2  0  0  0
  2 24  1  0  0  0
  3  4  1  0  0  0
  3 29  1  0  0  0
  4  5  1  0  0  0
  4 21  2  0  0  0
  5  6  2  0  0  0
  5 20  1  0  0  0
  6  7  1  0  0  0
  7  8  1  0  0  0
  8  9  1  0  0  0
  8 20  2  0  0  0
  9 10  1  0  0  0
  9 13  1  0  0  0
  9 30  1  0  0  0
 10 11  1  0  0  0
 10 31  1  0  0  0
 10 32  1  0  0  0
 11 12  1  0  0  0
 11 33  1  0  0  0
 11 34  1  0  0  0
 12 35  1  0  0  0
 12 36  1  0  0  0
 12 44  1  0  0  0
 13 14  1  0  0  0
 13 37  1  0  0  0
 13 44  1  0  0  0
 14 15  2  0  0  0
 14 19  1  0  0  0
 15 16  1  0  0  0
 15 38  1  0  0  0
 16 17  2  0  0  0
 16 39  1  0  0  0
 17 18  1  0  0  0
 17 40  1  0  0  0
 18 19  2  0  0  0
 18 41  1  0  0  0
 19 42  1  0  0  0
 21 22  1  0  0  0
 21 23  1  0  0  0
 23 24  2  0  0  0
 23 43  1  0  0  0
 24 25  1  0  0  0
 44 45  1  0  0  0
 44 46  1  0  0  0
M  CHG  1  44   1
M  END
> <energy>
73.172

> <i_ionizer_Ion_state_n>
1

> <i_ionizer_Tot_Q>
1

> <s_ionizer_Ion_centers>
44

> <s_ionizer_Ion_types>
N5

> <s_ionizer_Ion_ctrs_in>
13

> <r_ionizer_Ionization_penalty>
0.000148807

> <r_ionizer_Ionization_penalty_charging>
0.000148807

> <r_ionizer_Ionization_penalty_neutral>
0

$$$$
ZINC001211850594
                    3D
 Schrodinger Suite 2019-4.
 43 46  0  0  1  0            999 V2000
   -0.8526   -3.7409   -1.8413 F   0  0  0  0  0  0
   -1.9990   -3.6456   -1.1518 C   0  0  0  0  0  0
   -2.7343   -4.8002   -0.8682 C   0  0  0  0  0  0
   -2.1865   -6.3478   -1.4012 Cl  0  0  0  0  0  0
   -3.9300   -4.7129   -0.1438 C   0  0  0  0  0  0
   -4.3994   -3.4695    0.2944 C   0  0  0  0  0  0
   -3.6501   -2.3208    0.0255 C   0  0  0  0  0  0
   -2.4473   -2.4023   -0.6897 C   0  0  0  0  0  0
   -1.6701   -1.2008   -0.8780 C   0  0  0  0  0  0
   -1.2350   -0.7549   -2.0641 N   0  0  0  0  0  0
   -0.5607    0.4226   -1.7395 O   0  0  0  0  0  0
   -0.6737    0.5772   -0.3896 C   0  0  0  0  0  0
   -0.0184    1.7637    0.2403 C   0  0  2  0  0  0
   -0.8361    3.0378   -0.0459 C   0  0  0  0  0  0
   -0.0613    4.3238    0.2739 C   0  0  0  0  0  0
    1.2209    4.0457    1.0554 C   0  0  0  0  0  0
    1.4520    1.9510   -0.2247 C   0  0  2  0  0  0
    2.2982    0.7300    0.1104 C   0  0  0  0  0  0
    2.7863   -0.1014   -0.9105 C   0  0  0  0  0  0
    3.4887   -1.2638   -0.5939 C   0  0  0  0  0  0
    3.7042   -1.6110    0.7415 C   0  0  0  0  0  0
    3.2487   -0.7829    1.7654 C   0  0  0  0  0  0
    2.5537    0.3865    1.4512 C   0  0  0  0  0  0
   -1.3758   -0.3699    0.1839 N   0  0  0  0  0  0
   -4.5138   -5.6057    0.0690 H   0  0  0  0  0  0
   -5.3362   -3.3885    0.8483 H   0  0  0  0  0  0
   -4.0142   -1.3525    0.3670 H   0  0  0  0  0  0
   -0.0340    1.5879    1.3252 H   0  0  0  0  0  0
   -1.1300    3.0597   -1.1029 H   0  0  0  0  0  0
   -1.7711    3.0030    0.5223 H   0  0  0  0  0  0
    0.1776    4.8357   -0.6673 H   0  0  0  0  0  0
   -0.6984    5.0178    0.8366 H   0  0  0  0  0  0
    1.7506    4.9782    1.2828 H   0  0  0  0  0  0
    0.9760    3.6085    2.0297 H   0  0  0  0  0  0
    1.4422    2.0734   -1.3192 H   0  0  0  0  0  0
    2.6007    0.1398   -1.9547 H   0  0  0  0  0  0
    3.8478   -1.9068   -1.3925 H   0  0  0  0  0  0
    4.2198   -2.5350    0.9800 H   0  0  0  0  0  0
    3.4193   -1.0431    2.8058 H   0  0  0  0  0  0
    2.2053    1.0278    2.2574 H   0  0  0  0  0  0
    2.1474    3.1574    0.3254 N   0  3  0  0  0  0
    2.5660    3.6819   -0.4517 H   0  0  0  0  0  0
    2.8867    2.8496    0.9681 H   0  0  0  0  0  0
  1  2  1  0  0  0
  2  3  2  0  0  0
  2  8  1  0  0  0
  3  4  1  0  0  0
  3  5  1  0  0  0
  5  6  2  0  0  0
  5 25  1  0  0  0
  6  7  1  0  0  0
  6 26  1  0  0  0
  7  8  2  0  0  0
  7 27  1  0  0  0
  8  9  1  0  0  0
  9 10  2  0  0  0
  9 24  1  0  0  0
 10 11  1  0  0  0
 11 12  1  0  0  0
 12 13  1  0  0  0
 12 24  2  0  0  0
 13 14  1  0  0  0
 13 17  1  0  0  0
 13 28  1  0  0  0
 14 15  1  0  0  0
 14 29  1  0  0  0
 14 30  1  0  0  0
 15 16  1  0  0  0
 15 31  1  0  0  0
 15 32  1  0  0  0
 16 33  1  0  0  0
 16 34  1  0  0  0
 16 41  1  0  0  0
 17 18  1  0  0  0
 17 35  1  0  0  0
 17 41  1  0  0  0
 18 19  2  0  0  0
 18 23  1  0  0  0
 19 20  1  0  0  0
 19 36  1  0  0  0
 20 21  2  0  0  0
 20 37  1  0  0  0
 21 22  1  0  0  0
 21 38  1  0  0  0
 22 23  2  0  0  0
 22 39  1  0  0  0
 23 40  1  0  0  0
 41 42  1  0  0  0
 41 43  1  0  0  0
M  CHG  1  41   1
M  END
> <energy>
68.3362

> <i_ionizer_Ion_state_n>
1

> <i_ionizer_Tot_Q>
1

> <s_ionizer_Ion_centers>
41

> <s_ionizer_Ion_types>
N5

> <s_ionizer_Ion_ctrs_in>
17

> <r_ionizer_Ionization_penalty>
0.000148807

> <r_ionizer_Ionization_penalty_charging>
0.000148807

> <r_ionizer_Ionization_penalty_neutral>
0

$$$$
ZINC001211850595
                    3D
 Schrodinger Suite 2019-4.
 43 46  0  0  1  0            999 V2000
   -3.4926   -1.7994   -2.2635 F   0  0  0  0  0  0
   -4.0266   -1.1998   -1.1855 C   0  0  0  0  0  0
   -5.3072   -0.6564   -1.2557 C   0  0  0  0  0  0
   -6.2219   -0.7528   -2.7122 Cl  0  0  0  0  0  0
   -5.8629   -0.0244   -0.1406 C   0  0  0  0  0  0
   -5.1280    0.0743    1.0422 C   0  0  0  0  0  0
   -3.8368   -0.4525    1.1069 C   0  0  0  0  0  0
   -3.2864   -1.0986   -0.0084 C   0  0  0  0  0  0
   -1.9394   -1.6081    0.0306 C   0  0  0  0  0  0
   -1.6218   -2.8898    0.2651 N   0  0  0  0  0  0
   -0.2304   -2.9083    0.1228 O   0  0  0  0  0  0
    0.1509   -1.6258   -0.1570 C   0  0  0  0  0  0
    1.6023   -1.4025   -0.4149 C   0  0  2  0  0  0
    2.4875   -1.7943    0.7759 C   0  0  0  0  0  0
    3.9635   -1.5220    0.4836 C   0  0  0  0  0  0
    4.1992   -0.1201   -0.0746 C   0  0  0  0  0  0
    1.9316    0.0117   -0.9811 C   0  0  1  0  0  0
    1.4422    1.2842   -0.2874 C   0  0  0  0  0  0
    1.1376    1.3847    1.0764 C   0  0  0  0  0  0
    0.6951    2.5897    1.6311 C   0  0  0  0  0  0
    0.5471    3.7195    0.8316 C   0  0  0  0  0  0
    0.8480    3.6485   -0.5235 C   0  0  0  0  0  0
    1.2995    2.4462   -1.0724 C   0  0  0  0  0  0
   -0.8632   -0.7934   -0.2086 N   0  0  0  0  0  0
   -6.8620    0.4004   -0.1923 H   0  0  0  0  0  0
   -5.5566    0.5738    1.9077 H   0  0  0  0  0  0
   -3.2594   -0.3541    2.0238 H   0  0  0  0  0  0
    1.8647   -2.1076   -1.2192 H   0  0  0  0  0  0
    2.3575   -2.8597    1.0078 H   0  0  0  0  0  0
    2.1972   -1.2647    1.6861 H   0  0  0  0  0  0
    4.5498   -1.6562    1.4028 H   0  0  0  0  0  0
    4.3289   -2.2656   -0.2355 H   0  0  0  0  0  0
    5.2569   -0.0140   -0.3479 H   0  0  0  0  0  0
    4.0089    0.6357    0.6974 H   0  0  0  0  0  0
    1.4376    0.0357   -1.9661 H   0  0  0  0  0  0
    1.2218    0.5364    1.7429 H   0  0  0  0  0  0
    0.4634    2.6435    2.6914 H   0  0  0  0  0  0
    0.1999    4.6525    1.2633 H   0  0  0  0  0  0
    0.7374    4.5243   -1.1563 H   0  0  0  0  0  0
    1.5448    2.4149   -2.1325 H   0  0  0  0  0  0
    3.3915    0.1355   -1.2807 N   0  3  0  0  0  0
    3.5857    1.0848   -1.6204 H   0  0  0  0  0  0
    3.6450   -0.5459   -2.0057 H   0  0  0  0  0  0
  1  2  1  0  0  0
  2  3  2  0  0  0
  2  8  1  0  0  0
  3  4  1  0  0  0
  3  5  1  0  0  0
  5  6  2  0  0  0
  5 25  1  0  0  0
  6  7  1  0  0  0
  6 26  1  0  0  0
  7  8  2  0  0  0
  7 27  1  0  0  0
  8  9  1  0  0  0
  9 10  2  0  0  0
  9 24  1  0  0  0
 10 11  1  0  0  0
 11 12  1  0  0  0
 12 13  1  0  0  0
 12 24  2  0  0  0
 13 14  1  0  0  0
 13 17  1  0  0  0
 13 28  1  0  0  0
 14 15  1  0  0  0
 14 29  1  0  0  0
 14 30  1  0  0  0
 15 16  1  0  0  0
 15 31  1  0  0  0
 15 32  1  0  0  0
 16 33  1  0  0  0
 16 34  1  0  0  0
 16 41  1  0  0  0
 17 18  1  0  0  0
 17 35  1  0  0  0
 17 41  1  0  0  0
 18 19  2  0  0  0
 18 23  1  0  0  0
 19 20  1  0  0  0
 19 36  1  0  0  0
 20 21  2  0  0  0
 20 37  1  0  0  0
 21 22  1  0  0  0
 21 38  1  0  0  0
 22 23  2  0  0  0
 22 39  1  0  0  0
 23 40  1  0  0  0
 41 42  1  0  0  0
 41 43  1  0  0  0
M  CHG  1  41   1
M  END
> <energy>
71.2547

> <i_ionizer_Ion_state_n>
1

> <i_ionizer_Tot_Q>
1

> <s_ionizer_Ion_centers>
41

> <s_ionizer_Ion_types>
N5

> <s_ionizer_Ion_ctrs_in>
17

> <r_ionizer_Ionization_penalty>
0.000148807

> <r_ionizer_Ionization_penalty_charging>
0.000148807

> <r_ionizer_Ionization_penalty_neutral>
0

$$$$
ZINC001211850596
                    3D
 Schrodinger Suite 2019-4.
 43 46  0  0  1  0            999 V2000
   -3.8002   -1.3239    1.8879 F   0  0  0  0  0  0
   -4.5939   -0.8024    0.9385 C   0  0  0  0  0  0
   -5.9404   -0.5575    1.2137 C   0  0  0  0  0  0
   -6.5971   -0.9183    2.7648 Cl  0  0  0  0  0  0
   -6.7770   -0.0221    0.2306 C   0  0  0  0  0  0
   -6.2663    0.2635   -1.0360 C   0  0  0  0  0  0
   -4.9192    0.0156   -1.3139 C   0  0  0  0  0  0
   -4.0757   -0.5155   -0.3246 C   0  0  0  0  0  0
   -2.6762   -0.7341   -0.6140 C   0  0  0  0  0  0
   -2.2299   -1.6939   -1.4377 N   0  0  0  0  0  0
   -0.8592   -1.4454   -1.5174 O   0  0  0  0  0  0
   -0.6168   -0.3458   -0.7454 C   0  0  0  0  0  0
    0.7831    0.1963   -0.7699 C   0  0  1  0  0  0
    0.8040    1.6855   -0.3737 C   0  0  0  0  0  0
    0.6710    1.8921    1.1346 C   0  0  0  0  0  0
    1.6464    1.0132    1.9097 C   0  0  0  0  0  0
    1.7400   -0.6514    0.1194 C   0  0  1  0  0  0
    3.2430   -0.5733   -0.2071 C   0  0  0  0  0  0
    4.1531   -1.3176    0.5755 C   0  0  0  0  0  0
    5.5285   -1.2961    0.3175 C   0  0  0  0  0  0
    6.0232   -0.5327   -0.7332 C   0  0  0  0  0  0
    5.1483    0.2029   -1.5245 C   0  0  0  0  0  0
    3.7728    0.1775   -1.2690 C   0  0  0  0  0  0
   -1.7002    0.1200   -0.1615 N   0  0  0  0  0  0
   -7.8248    0.1771    0.4455 H   0  0  0  0  0  0
   -6.9139    0.6823   -1.8035 H   0  0  0  0  0  0
   -4.5243    0.2450   -2.3027 H   0  0  0  0  0  0
    1.0933    0.1266   -1.8202 H   0  0  0  0  0  0
    0.0132    2.2412   -0.8925 H   0  0  0  0  0  0
    1.7498    2.1372   -0.6942 H   0  0  0  0  0  0
    0.8515    2.9456    1.3766 H   0  0  0  0  0  0
   -0.3538    1.6740    1.4567 H   0  0  0  0  0  0
    1.4623    1.1280    2.9834 H   0  0  0  0  0  0
    2.6765    1.3490    1.7440 H   0  0  0  0  0  0
    1.4912   -1.7085   -0.0517 H   0  0  0  0  0  0
    3.7872   -1.9150    1.4104 H   0  0  0  0  0  0
    6.2133   -1.8722    0.9358 H   0  0  0  0  0  0
    7.0886   -0.5129   -0.9382 H   0  0  0  0  0  0
    5.5347    0.8003   -2.3463 H   0  0  0  0  0  0
    3.1422    0.7661   -1.9255 H   0  0  0  0  0  0
    1.4970   -0.4164    1.5748 N   0  3  0  0  0  0
    2.1738   -0.9621    2.1211 H   0  0  0  0  0  0
    0.5443   -0.7188    1.8098 H   0  0  0  0  0  0
  1  2  1  0  0  0
  2  3  2  0  0  0
  2  8  1  0  0  0
  3  4  1  0  0  0
  3  5  1  0  0  0
  5  6  2  0  0  0
  5 25  1  0  0  0
  6  7  1  0  0  0
  6 26  1  0  0  0
  7  8  2  0  0  0
  7 27  1  0  0  0
  8  9  1  0  0  0
  9 10  2  0  0  0
  9 24  1  0  0  0
 10 11  1  0  0  0
 11 12  1  0  0  0
 12 13  1  0  0  0
 12 24  2  0  0  0
 13 14  1  0  0  0
 13 17  1  0  0  0
 13 28  1  0  0  0
 14 15  1  0  0  0
 14 29  1  0  0  0
 14 30  1  0  0  0
 15 16  1  0  0  0
 15 31  1  0  0  0
 15 32  1  0  0  0
 16 33  1  0  0  0
 16 34  1  0  0  0
 16 41  1  0  0  0
 17 18  1  0  0  0
 17 35  1  0  0  0
 17 41  1  0  0  0
 18 19  2  0  0  0
 18 23  1  0  0  0
 19 20  1  0  0  0
 19 36  1  0  0  0
 20 21  2  0  0  0
 20 37  1  0  0  0
 21 22  1  0  0  0
 21 38  1  0  0  0
 22 23  2  0  0  0
 22 39  1  0  0  0
 23 40  1  0  0  0
 41 42  1  0  0  0
 41 43  1  0  0  0
M  CHG  1  41   1
M  END
> <energy>
69.2175

> <i_ionizer_Ion_state_n>
1

> <i_ionizer_Tot_Q>
1

> <s_ionizer_Ion_centers>
41

> <s_ionizer_Ion_types>
N5

> <s_ionizer_Ion_ctrs_in>
17

> <r_ionizer_Ionization_penalty>
0.000148807

> <r_ionizer_Ionization_penalty_charging>
0.000148807

> <r_ionizer_Ionization_penalty_neutral>
0

$$$$
ZINC001211850597
                    3D
 Schrodinger Suite 2019-4.
 43 46  0  0  1  0            999 V2000
   -3.4870    0.2501   -1.2030 F   0  0  0  0  0  0
   -3.6909    1.2810   -0.3657 C   0  0  0  0  0  0
   -4.7159    2.1873   -0.6490 C   0  0  0  0  0  0
   -5.6891    2.0024   -2.0581 Cl  0  0  0  0  0  0
   -4.9745    3.2517    0.2153 C   0  0  0  0  0  0
   -4.2101    3.4039    1.3711 C   0  0  0  0  0  0
   -3.1813    2.4997    1.6526 C   0  0  0  0  0  0
   -2.9051    1.4283    0.7844 C   0  0  0  0  0  0
   -1.8185    0.5039    1.0794 C   0  0  0  0  0  0
   -1.2931    0.3436    2.3068 N   0  0  0  0  0  0
   -0.2856   -0.6004    2.1186 O   0  0  0  0  0  0
   -0.2895   -0.9170    0.7913 C   0  0  0  0  0  0
    0.6969   -1.9506    0.3478 C   0  0  1  0  0  0
   -0.0439   -3.0895   -0.3888 C   0  0  0  0  0  0
    0.7492   -3.6154   -1.5790 C   0  0  0  0  0  0
    1.1130   -2.4870   -2.5498 C   0  0  0  0  0  0
    1.8852   -1.3968   -0.4961 C   0  0  2  0  0  0
    2.5381   -0.1424    0.0694 C   0  0  0  0  0  0
    1.9864    1.1313   -0.1470 C   0  0  0  0  0  0
    2.5829    2.2730    0.3918 C   0  0  0  0  0  0
    3.7506    2.1594    1.1412 C   0  0  0  0  0  0
    4.3236    0.9067    1.3523 C   0  0  0  0  0  0
    3.7176   -0.2384    0.8278 C   0  0  0  0  0  0
   -1.2167   -0.2752    0.1176 N   0  0  0  0  0  0
   -5.7687    3.9615   -0.0046 H   0  0  0  0  0  0
   -4.4143    4.2249    2.0551 H   0  0  0  0  0  0
   -2.5924    2.6394    2.5591 H   0  0  0  0  0  0
    1.1441   -2.3862    1.2532 H   0  0  0  0  0  0
   -1.0263   -2.7609   -0.7542 H   0  0  0  0  0  0
   -0.2436   -3.9076    0.3142 H   0  0  0  0  0  0
    0.1661   -4.3832   -2.1031 H   0  0  0  0  0  0
    1.6620   -4.1071   -1.2228 H   0  0  0  0  0  0
    0.2514   -2.2632   -3.1895 H   0  0  0  0  0  0
    1.9054   -2.8461   -3.2154 H   0  0  0  0  0  0
    2.6752   -2.1614   -0.4733 H   0  0  0  0  0  0
    1.0767    1.2377   -0.7344 H   0  0  0  0  0  0
    2.1336    3.2488    0.2239 H   0  0  0  0  0  0
    4.2138    3.0483    1.5607 H   0  0  0  0  0  0
    5.2421    0.8210    1.9286 H   0  0  0  0  0  0
    4.1801   -1.2060    1.0112 H   0  0  0  0  0  0
    1.5367   -1.2146   -1.9270 N   0  3  0  0  0  0
    2.3587   -0.8562   -2.4272 H   0  0  0  0  0  0
    0.7694   -0.5363   -1.9994 H   0  0  0  0  0  0
  1  2  1  0  0  0
  2  3  2  0  0  0
  2  8  1  0  0  0
  3  4  1  0  0  0
  3  5  1  0  0  0
  5  6  2  0  0  0
  5 25  1  0  0  0
  6  7  1  0  0  0
  6 26  1  0  0  0
  7  8  2  0  0  0
  7 27  1  0  0  0
  8  9  1  0  0  0
  9 10  2  0  0  0
  9 24  1  0  0  0
 10 11  1  0  0  0
 11 12  1  0  0  0
 12 13  1  0  0  0
 12 24  2  0  0  0
 13 14  1  0  0  0
 13 17  1  0  0  0
 13 28  1  0  0  0
 14 15  1  0  0  0
 14 29  1  0  0  0
 14 30  1  0  0  0
 15 16  1  0  0  0
 15 31  1  0  0  0
 15 32  1  0  0  0
 16 33  1  0  0  0
 16 34  1  0  0  0
 16 41  1  0  0  0
 17 18  1  0  0  0
 17 35  1  0  0  0
 17 41  1  0  0  0
 18 19  2  0  0  0
 18 23  1  0  0  0
 19 20  1  0  0  0
 19 36  1  0  0  0
 20 21  2  0  0  0
 20 37  1  0  0  0
 21 22  1  0  0  0
 21 38  1  0  0  0
 22 23  2  0  0  0
 22 39  1  0  0  0
 23 40  1  0  0  0
 41 42  1  0  0  0
 41 43  1  0  0  0
M  CHG  1  41   1
M  END
> <energy>
70.768

> <i_ionizer_Ion_state_n>
1

> <i_ionizer_Tot_Q>
1

> <s_ionizer_Ion_centers>
41

> <s_ionizer_Ion_types>
N5

> <s_ionizer_Ion_ctrs_in>
17

> <r_ionizer_Ionization_penalty>
0.000148807

> <r_ionizer_Ionization_penalty_charging>
0.000148807

> <r_ionizer_Ionization_penalty_neutral>
0

$$$$
ZINC001211850801
                    3D
 Schrodinger Suite 2019-4.
 46 49  0  0  1  0            999 V2000
   -2.8274    2.9010    0.3856 C   0  0  0  0  0  0
   -3.7134    1.6848    0.4992 C   0  0  0  0  0  0
   -5.0060    1.7676    1.0555 C   0  0  0  0  0  0
   -5.6822    3.2668    1.5997 Cl  0  0  0  0  0  0
   -5.8118    0.6298    1.1891 C   0  0  0  0  0  0
   -5.3565   -0.6083    0.7525 C   0  0  0  0  0  0
   -4.0980   -0.7070    0.1668 C   0  0  0  0  0  0
   -3.2778    0.4254    0.0211 C   0  0  0  0  0  0
   -1.9830    0.2279   -0.6117 C   0  0  0  0  0  0
   -1.5214    0.9468   -1.6448 N   0  0  0  0  0  0
   -0.2627    0.3937   -1.8938 O   0  0  0  0  0  0
   -0.0966   -0.6072   -0.9835 C   0  0  0  0  0  0
    1.1980   -1.3521   -1.0010 C   0  0  2  0  0  0
    0.9387   -2.8705   -0.8893 C   0  0  0  0  0  0
    1.1074   -3.3500    0.5491 C   0  0  0  0  0  0
    2.5242   -3.0708    1.0551 C   0  0  0  0  0  0
    2.0948   -0.8397    0.1637 C   0  0  2  0  0  0
    2.7751    0.4873   -0.1540 C   0  0  0  0  0  0
    3.5726    0.6607   -1.2963 C   0  0  0  0  0  0
    4.1849    1.8880   -1.5574 C   0  0  0  0  0  0
    4.0243    2.9532   -0.6740 C   0  0  0  0  0  0
    3.2533    2.7914    0.4748 C   0  0  0  0  0  0
    2.6311    1.5686    0.7315 C   0  0  0  0  0  0
   -1.1335   -0.7710   -0.1955 N   0  0  0  0  0  0
   -2.9330    3.3500   -0.6072 H   0  0  0  0  0  0
   -1.7762    2.6420    0.5590 H   0  0  0  0  0  0
   -3.0610    3.6585    1.1409 H   0  0  0  0  0  0
   -6.8015    0.7071    1.6362 H   0  0  0  0  0  0
   -5.9773   -1.4928    0.8590 H   0  0  0  0  0  0
   -3.7511   -1.6770   -0.1876 H   0  0  0  0  0  0
    1.6684   -1.1848   -1.9771 H   0  0  0  0  0  0
    1.6596   -3.4076   -1.5189 H   0  0  0  0  0  0
   -0.0550   -3.1385   -1.2701 H   0  0  0  0  0  0
    0.8878   -4.4196    0.6248 H   0  0  0  0  0  0
    0.3812   -2.8400    1.1930 H   0  0  0  0  0  0
    3.1877   -3.8991    0.7745 H   0  0  0  0  0  0
    2.5114   -3.0416    2.1515 H   0  0  0  0  0  0
    1.4635   -0.6644    1.0480 H   0  0  0  0  0  0
    3.7377   -0.1571   -1.9928 H   0  0  0  0  0  0
    4.7974    2.0102   -2.4477 H   0  0  0  0  0  0
    4.5022    3.9080   -0.8741 H   0  0  0  0  0  0
    3.1425    3.6101    1.1791 H   0  0  0  0  0  0
    2.0400    1.4595    1.6375 H   0  0  0  0  0  0
    3.1353   -1.8210    0.5595 N   0  3  0  0  0  0
    3.7156   -1.4137    1.3022 H   0  0  0  0  0  0
    3.7224   -2.0347   -0.2553 H   0  0  0  0  0  0
  1  2  1  0  0  0
  1 25  1  0  0  0
  1 26  1  0  0  0
  1 27  1  0  0  0
  2  3  2  0  0  0
  2  8  1  0  0  0
  3  4  1  0  0  0
  3  5  1  0  0  0
  5  6  2  0  0  0
  5 28  1  0  0  0
  6  7  1  0  0  0
  6 29  1  0  0  0
  7  8  2  0  0  0
  7 30  1  0  0  0
  8  9  1  0  0  0
  9 10  2  0  0  0
  9 24  1  0  0  0
 10 11  1  0  0  0
 11 12  1  0  0  0
 12 13  1  0  0  0
 12 24  2  0  0  0
 13 14  1  0  0  0
 13 17  1  0  0  0
 13 31  1  0  0  0
 14 15  1  0  0  0
 14 32  1  0  0  0
 14 33  1  0  0  0
 15 16  1  0  0  0
 15 34  1  0  0  0
 15 35  1  0  0  0
 16 36  1  0  0  0
 16 37  1  0  0  0
 16 44  1  0  0  0
 17 18  1  0  0  0
 17 38  1  0  0  0
 17 44  1  0  0  0
 18 19  2  0  0  0
 18 23  1  0  0  0
 19 20  1  0  0  0
 19 39  1  0  0  0
 20 21  2  0  0  0
 20 40  1  0  0  0
 21 22  1  0  0  0
 21 41  1  0  0  0
 22 23  2  0  0  0
 22 42  1  0  0  0
 23 43  1  0  0  0
 44 45  1  0  0  0
 44 46  1  0  0  0
M  CHG  1  44   1
M  END
> <energy>
69.0376

> <i_ionizer_Ion_state_n>
1

> <i_ionizer_Tot_Q>
1

> <s_ionizer_Ion_centers>
44

> <s_ionizer_Ion_types>
N5

> <s_ionizer_Ion_ctrs_in>
17

> <r_ionizer_Ionization_penalty>
0.000148807

> <r_ionizer_Ionization_penalty_charging>
0.000148807

> <r_ionizer_Ionization_penalty_neutral>
0

$$$$
ZINC001211850802
                    3D
 Schrodinger Suite 2019-4.
 46 49  0  0  1  0            999 V2000
   -2.5434    2.9946    1.6046 C   0  0  0  0  0  0
   -3.1747    2.5512    0.3079 C   0  0  0  0  0  0
   -4.1223    3.3635   -0.3492 C   0  0  0  0  0  0
   -4.6414    4.8838    0.2964 Cl  0  0  0  0  0  0
   -4.6975    2.9706   -1.5637 C   0  0  0  0  0  0
   -4.3504    1.7552   -2.1417 C   0  0  0  0  0  0
   -3.4399    0.9230   -1.4955 C   0  0  0  0  0  0
   -2.8602    1.2943   -0.2663 C   0  0  0  0  0  0
   -1.9493    0.3367    0.3572 C   0  0  0  0  0  0
   -1.9460    0.0389    1.6665 N   0  0  0  0  0  0
   -0.9181   -0.8918    1.7921 O   0  0  0  0  0  0
   -0.4172   -1.0869    0.5394 C   0  0  0  0  0  0
    0.7273   -2.0343    0.4144 C   0  0  1  0  0  0
    0.2489   -3.3449   -0.2308 C   0  0  0  0  0  0
    1.4197   -4.2853   -0.5037 C   0  0  0  0  0  0
    2.5199   -3.5900   -1.3006 C   0  0  0  0  0  0
    1.8802   -1.4147   -0.4191 C   0  0  1  0  0  0
    2.4328   -0.1425    0.2132 C   0  0  0  0  0  0
    3.1241   -0.1698    1.4346 C   0  0  0  0  0  0
    3.5910    1.0121    2.0138 C   0  0  0  0  0  0
    3.3774    2.2341    1.3795 C   0  0  0  0  0  0
    2.7024    2.2755    0.1615 C   0  0  0  0  0  0
    2.2333    1.0960   -0.4184 C   0  0  0  0  0  0
   -1.0378   -0.3873   -0.3837 N   0  0  0  0  0  0
   -3.1052    2.5917    2.4529 H   0  0  0  0  0  0
   -2.5051    4.0834    1.6980 H   0  0  0  0  0  0
   -1.4994    2.6728    1.6688 H   0  0  0  0  0  0
   -5.4192    3.6140   -2.0626 H   0  0  0  0  0  0
   -4.7967    1.4507   -3.0849 H   0  0  0  0  0  0
   -3.1892   -0.0352   -1.9492 H   0  0  0  0  0  0
    1.0964   -2.2714    1.4222 H   0  0  0  0  0  0
   -0.2675   -3.1337   -1.1768 H   0  0  0  0  0  0
   -0.4810   -3.8447    0.4180 H   0  0  0  0  0  0
    1.0657   -5.1667   -1.0515 H   0  0  0  0  0  0
    1.8261   -4.6474    0.4493 H   0  0  0  0  0  0
    2.1671   -3.3434   -2.3096 H   0  0  0  0  0  0
    3.3667   -4.2746   -1.4189 H   0  0  0  0  0  0
    1.4957   -1.1530   -1.4161 H   0  0  0  0  0  0
    3.3052   -1.1165    1.9403 H   0  0  0  0  0  0
    4.1210    0.9779    2.9621 H   0  0  0  0  0  0
    3.7376    3.1535    1.8331 H   0  0  0  0  0  0
    2.5365    3.2272   -0.3359 H   0  0  0  0  0  0
    1.6961    1.1517   -1.3628 H   0  0  0  0  0  0
    2.9943   -2.3818   -0.6112 N   0  3  0  0  0  0
    3.3748   -2.6443    0.3056 H   0  0  0  0  0  0
    3.7310   -1.9401   -1.1737 H   0  0  0  0  0  0
  1  2  1  0  0  0
  1 25  1  0  0  0
  1 26  1  0  0  0
  1 27  1  0  0  0
  2  3  2  0  0  0
  2  8  1  0  0  0
  3  4  1  0  0  0
  3  5  1  0  0  0
  5  6  2  0  0  0
  5 28  1  0  0  0
  6  7  1  0  0  0
  6 29  1  0  0  0
  7  8  2  0  0  0
  7 30  1  0  0  0
  8  9  1  0  0  0
  9 10  2  0  0  0
  9 24  1  0  0  0
 10 11  1  0  0  0
 11 12  1  0  0  0
 12 13  1  0  0  0
 12 24  2  0  0  0
 13 14  1  0  0  0
 13 17  1  0  0  0
 13 31  1  0  0  0
 14 15  1  0  0  0
 14 32  1  0  0  0
 14 33  1  0  0  0
 15 16  1  0  0  0
 15 34  1  0  0  0
 15 35  1  0  0  0
 16 36  1  0  0  0
 16 37  1  0  0  0
 16 44  1  0  0  0
 17 18  1  0  0  0
 17 38  1  0  0  0
 17 44  1  0  0  0
 18 19  2  0  0  0
 18 23  1  0  0  0
 19 20  1  0  0  0
 19 39  1  0  0  0
 20 21  2  0  0  0
 20 40  1  0  0  0
 21 22  1  0  0  0
 21 41  1  0  0  0
 22 23  2  0  0  0
 22 42  1  0  0  0
 23 43  1  0  0  0
 44 45  1  0  0  0
 44 46  1  0  0  0
M  CHG  1  44   1
M  END
> <energy>
58.5376

> <i_ionizer_Ion_state_n>
1

> <i_ionizer_Tot_Q>
1

> <s_ionizer_Ion_centers>
44

> <s_ionizer_Ion_types>
N5

> <s_ionizer_Ion_ctrs_in>
17

> <r_ionizer_Ionization_penalty>
0.000148807

> <r_ionizer_Ionization_penalty_charging>
0.000148807

> <r_ionizer_Ionization_penalty_neutral>
0

$$$$
ZINC001211850803
                    3D
 Schrodinger Suite 2019-4.
 46 49  0  0  1  0            999 V2000
   -3.5396    1.2145    1.6552 C   0  0  0  0  0  0
   -4.0263    0.3385    0.5265 C   0  0  0  0  0  0
   -5.3240    0.4933   -0.0026 C   0  0  0  0  0  0
   -6.4489    1.6488    0.6296 Cl  0  0  0  0  0  0
   -5.7710   -0.2931   -1.0701 C   0  0  0  0  0  0
   -4.9406   -1.2600   -1.6252 C   0  0  0  0  0  0
   -3.6658   -1.4516   -1.0983 C   0  0  0  0  0  0
   -3.2017   -0.6792   -0.0159 C   0  0  0  0  0  0
   -1.8643   -0.9773    0.4899 C   0  0  0  0  0  0
   -1.5370   -1.0276    1.7909 N   0  0  0  0  0  0
   -0.1739   -1.3054    1.7800 O   0  0  0  0  0  0
    0.1918   -1.4107    0.4707 C   0  0  0  0  0  0
    1.6340   -1.6343    0.1603 C   0  0  2  0  0  0
    2.5359   -1.7366    1.4009 C   0  0  0  0  0  0
    4.0032   -1.8879    1.0092 C   0  0  0  0  0  0
    4.4292   -0.8199    0.0065 C   0  0  0  0  0  0
    2.1627   -0.6134   -0.8918 C   0  0  1  0  0  0
    1.9004    0.8848   -0.7150 C   0  0  0  0  0  0
    1.5901    1.5051    0.5031 C   0  0  0  0  0  0
    1.3359    2.8799    0.5684 C   0  0  0  0  0  0
    1.3967    3.6625   -0.5810 C   0  0  0  0  0  0
    1.7194    3.0734   -1.7980 C   0  0  0  0  0  0
    1.9718    1.7019   -1.8617 C   0  0  0  0  0  0
   -0.8181   -1.2729   -0.3577 N   0  0  0  0  0  0
   -2.4822    1.4683    1.5303 H   0  0  0  0  0  0
   -4.0562    2.1775    1.6910 H   0  0  0  0  0  0
   -3.6851    0.7073    2.6138 H   0  0  0  0  0  0
   -6.7709   -0.1533   -1.4751 H   0  0  0  0  0  0
   -5.2860   -1.8684   -2.4569 H   0  0  0  0  0  0
   -3.0286   -2.2223   -1.5300 H   0  0  0  0  0  0
    1.6812   -2.6237   -0.3218 H   0  0  0  0  0  0
    2.4322   -0.8593    2.0469 H   0  0  0  0  0  0
    2.2353   -2.5969    2.0131 H   0  0  0  0  0  0
    4.1633   -2.8840    0.5773 H   0  0  0  0  0  0
    4.6316   -1.8271    1.9054 H   0  0  0  0  0  0
    5.4711   -0.9961   -0.2863 H   0  0  0  0  0  0
    4.4054    0.1736    0.4690 H   0  0  0  0  0  0
    1.6239   -0.8655   -1.8199 H   0  0  0  0  0  0
    1.5263    0.9499    1.4306 H   0  0  0  0  0  0
    1.0899    3.3390    1.5224 H   0  0  0  0  0  0
    1.1959    4.7287   -0.5269 H   0  0  0  0  0  0
    1.7763    3.6775   -2.6991 H   0  0  0  0  0  0
    2.2310    1.2601   -2.8225 H   0  0  0  0  0  0
    3.6027   -0.8558   -1.2133 N   0  3  0  0  0  0
    3.9291   -0.1295   -1.8615 H   0  0  0  0  0  0
    3.6975   -1.7774   -1.6560 H   0  0  0  0  0  0
  1  2  1  0  0  0
  1 25  1  0  0  0
  1 26  1  0  0  0
  1 27  1  0  0  0
  2  3  2  0  0  0
  2  8  1  0  0  0
  3  4  1  0  0  0
  3  5  1  0  0  0
  5  6  2  0  0  0
  5 28  1  0  0  0
  6  7  1  0  0  0
  6 29  1  0  0  0
  7  8  2  0  0  0
  7 30  1  0  0  0
  8  9  1  0  0  0
  9 10  2  0  0  0
  9 24  1  0  0  0
 10 11  1  0  0  0
 11 12  1  0  0  0
 12 13  1  0  0  0
 12 24  2  0  0  0
 13 14  1  0  0  0
 13 17  1  0  0  0
 13 31  1  0  0  0
 14 15  1  0  0  0
 14 32  1  0  0  0
 14 33  1  0  0  0
 15 16  1  0  0  0
 15 34  1  0  0  0
 15 35  1  0  0  0
 16 36  1  0  0  0
 16 37  1  0  0  0
 16 44  1  0  0  0
 17 18  1  0  0  0
 17 38  1  0  0  0
 17 44  1  0  0  0
 18 19  2  0  0  0
 18 23  1  0  0  0
 19 20  1  0  0  0
 19 39  1  0  0  0
 20 21  2  0  0  0
 20 40  1  0  0  0
 21 22  1  0  0  0
 21 41  1  0  0  0
 22 23  2  0  0  0
 22 42  1  0  0  0
 23 43  1  0  0  0
 44 45  1  0  0  0
 44 46  1  0  0  0
M  CHG  1  44   1
M  END
> <energy>
68.6401

> <i_ionizer_Ion_state_n>
1

> <i_ionizer_Tot_Q>
1

> <s_ionizer_Ion_centers>
44

> <s_ionizer_Ion_types>
N5

> <s_ionizer_Ion_ctrs_in>
17

> <r_ionizer_Ionization_penalty>
0.000148807

> <r_ionizer_Ionization_penalty_charging>
0.000148807

> <r_ionizer_Ionization_penalty_neutral>
0

$$$$
ZINC001211850805
                    3D
 Schrodinger Suite 2019-4.
 46 49  0  0  1  0            999 V2000
   -3.4021    0.9192   -1.2055 C   0  0  0  0  0  0
   -3.8493   -0.1462   -0.2372 C   0  0  0  0  0  0
   -5.2060   -0.2839    0.1208 C   0  0  0  0  0  0
   -6.4359    0.7484   -0.5234 Cl  0  0  0  0  0  0
   -5.6216   -1.2711    1.0247 C   0  0  0  0  0  0
   -4.6973   -2.1448    1.5853 C   0  0  0  0  0  0
   -3.3539   -2.0339    1.2377 C   0  0  0  0  0  0
   -2.9209   -1.0597    0.3188 C   0  0  0  0  0  0
   -1.4992   -1.0347   -0.0172 C   0  0  0  0  0  0
   -1.0250   -1.0651   -1.2716 N   0  0  0  0  0  0
    0.3597   -1.0182   -1.1003 O   0  0  0  0  0  0
    0.5802   -0.9673    0.2441 C   0  0  0  0  0  0
    1.9856   -0.8508    0.7391 C   0  0  1  0  0  0
    2.7411   -2.1844    0.6261 C   0  0  0  0  0  0
    3.2993   -2.4256   -0.7747 C   0  0  0  0  0  0
    4.1132   -1.2309   -1.2641 C   0  0  0  0  0  0
    2.7895    0.3086    0.0911 C   0  0  2  0  0  0
    2.0188    1.6258    0.1032 C   0  0  0  0  0  0
    1.8452    2.3172    1.3142 C   0  0  0  0  0  0
    1.1055    3.5026    1.3606 C   0  0  0  0  0  0
    0.5316    4.0153    0.1995 C   0  0  0  0  0  0
    0.6870    3.3396   -1.0079 C   0  0  0  0  0  0
    1.4184    2.1520   -1.0541 C   0  0  0  0  0  0
   -0.5255   -1.0207    0.9547 N   0  0  0  0  0  0
   -3.4053    0.5215   -2.2253 H   0  0  0  0  0  0
   -2.3998    1.2872   -0.9617 H   0  0  0  0  0  0
   -4.0438    1.8030   -1.1661 H   0  0  0  0  0  0
   -6.6728   -1.3627    1.2901 H   0  0  0  0  0  0
   -5.0206   -2.9137    2.2814 H   0  0  0  0  0  0
   -2.6331   -2.7236    1.6782 H   0  0  0  0  0  0
    1.9013   -0.6281    1.8154 H   0  0  0  0  0  0
    3.5787   -2.1671    1.3365 H   0  0  0  0  0  0
    2.1012   -3.0229    0.9241 H   0  0  0  0  0  0
    3.9316   -3.3219   -0.7634 H   0  0  0  0  0  0
    2.4805   -2.6245   -1.4765 H   0  0  0  0  0  0
    5.0153   -1.0999   -0.6536 H   0  0  0  0  0  0
    4.4520   -1.4137   -2.2878 H   0  0  0  0  0  0
    3.6767    0.4757    0.7204 H   0  0  0  0  0  0
    2.2756    1.9305    2.2343 H   0  0  0  0  0  0
    0.9687    4.0183    2.3084 H   0  0  0  0  0  0
   -0.0447    4.9375    0.2387 H   0  0  0  0  0  0
    0.2304    3.7307   -1.9141 H   0  0  0  0  0  0
    1.4962    1.6269   -2.0044 H   0  0  0  0  0  0
    3.3025   -0.0037   -1.2709 N   0  3  0  0  0  0
    3.8814    0.7784   -1.5986 H   0  0  0  0  0  0
    2.5071   -0.1311   -1.9076 H   0  0  0  0  0  0
  1  2  1  0  0  0
  1 25  1  0  0  0
  1 26  1  0  0  0
  1 27  1  0  0  0
  2  3  2  0  0  0
  2  8  1  0  0  0
  3  4  1  0  0  0
  3  5  1  0  0  0
  5  6  2  0  0  0
  5 28  1  0  0  0
  6  7  1  0  0  0
  6 29  1  0  0  0
  7  8  2  0  0  0
  7 30  1  0  0  0
  8  9  1  0  0  0
  9 10  2  0  0  0
  9 24  1  0  0  0
 10 11  1  0  0  0
 11 12  1  0  0  0
 12 13  1  0  0  0
 12 24  2  0  0  0
 13 14  1  0  0  0
 13 17  1  0  0  0
 13 31  1  0  0  0
 14 15  1  0  0  0
 14 32  1  0  0  0
 14 33  1  0  0  0
 15 16  1  0  0  0
 15 34  1  0  0  0
 15 35  1  0  0  0
 16 36  1  0  0  0
 16 37  1  0  0  0
 16 44  1  0  0  0
 17 18  1  0  0  0
 17 38  1  0  0  0
 17 44  1  0  0  0
 18 19  2  0  0  0
 18 23  1  0  0  0
 19 20  1  0  0  0
 19 39  1  0  0  0
 20 21  2  0  0  0
 20 40  1  0  0  0
 21 22  1  0  0  0
 21 41  1  0  0  0
 22 23  2  0  0  0
 22 42  1  0  0  0
 23 43  1  0  0  0
 44 45  1  0  0  0
 44 46  1  0  0  0
M  CHG  1  44   1
M  END
> <energy>
64.5065

> <i_ionizer_Ion_state_n>
1

> <i_ionizer_Tot_Q>
1

> <s_ionizer_Ion_centers>
44

> <s_ionizer_Ion_types>
N5

> <s_ionizer_Ion_ctrs_in>
17

> <r_ionizer_Ionization_penalty>
0.000148807

> <r_ionizer_Ionization_penalty_charging>
0.000148807

> <r_ionizer_Ionization_penalty_neutral>
0

$$$$
ZINC001211850862
                    3D
 Schrodinger Suite 2019-4.
 47 50  0  0  1  0            999 V2000
    4.7677   -4.1107   -1.7087 F   0  0  0  0  0  0
    4.2687   -2.9235   -1.2852 C   0  0  0  0  0  0
    2.9486   -2.9314   -1.5972 F   0  0  0  0  0  0
    4.4057   -2.8852    0.1304 O   0  0  0  0  0  0
    4.2744   -1.5952    0.5645 C   0  0  0  0  0  0
    5.4165   -0.9328    1.0030 C   0  0  0  0  0  0
    5.3173    0.3858    1.4415 C   0  0  0  0  0  0
    4.0742    1.0282    1.4603 C   0  0  0  0  0  0
    2.9119    0.3504    1.0565 C   0  0  0  0  0  0
    1.6019    0.9830    1.1435 C   0  0  0  0  0  0
    1.2499    1.7995    2.1494 N   0  0  0  0  0  0
   -0.0843    2.0931    1.8870 O   0  0  0  0  0  0
   -0.4047    1.4577    0.7199 C   0  0  0  0  0  0
   -1.7904    1.7189    0.2048 C   0  0  1  0  0  0
   -1.8363    3.1172   -0.4584 C   0  0  0  0  0  0
   -2.2281    3.0618   -1.9284 C   0  0  0  0  0  0
   -3.5104    2.2608   -2.1334 C   0  0  0  0  0  0
   -2.2993    0.6092   -0.7514 C   0  0  1  0  0  0
   -2.5043   -0.7165   -0.0274 C   0  0  0  0  0  0
   -1.5800   -1.7552   -0.2160 C   0  0  0  0  0  0
   -1.7349   -2.9746    0.4437 C   0  0  0  0  0  0
   -2.8199   -3.1712    1.2949 C   0  0  0  0  0  0
   -3.7484   -2.1508    1.4905 C   0  0  0  0  0  0
   -3.5908   -0.9293    0.8364 C   0  0  0  0  0  0
    0.5964    0.7642    0.2210 N   0  0  0  0  0  0
    3.0258   -0.9715    0.6043 C   0  0  0  0  0  0
    4.7867   -2.1111   -1.8138 H   0  0  0  0  0  0
    6.3815   -1.4310    0.9974 H   0  0  0  0  0  0
    6.2053    0.9163    1.7762 H   0  0  0  0  0  0
    4.0169    2.0568    1.8101 H   0  0  0  0  0  0
   -2.4542    1.7645    1.0806 H   0  0  0  0  0  0
   -2.5701    3.7359    0.0791 H   0  0  0  0  0  0
   -0.8761    3.6408   -0.3684 H   0  0  0  0  0  0
   -2.3695    4.0799   -2.3024 H   0  0  0  0  0  0
   -1.4072    2.6216   -2.5094 H   0  0  0  0  0  0
   -3.6595    2.0839   -3.2062 H   0  0  0  0  0  0
   -4.3658    2.8602   -1.7951 H   0  0  0  0  0  0
   -1.5561    0.4421   -1.5414 H   0  0  0  0  0  0
   -0.7221   -1.6160   -0.8708 H   0  0  0  0  0  0
   -1.0050   -3.7650    0.2936 H   0  0  0  0  0  0
   -2.9387   -4.1211    1.8087 H   0  0  0  0  0  0
   -4.5944   -2.3038    2.1545 H   0  0  0  0  0  0
   -4.3276   -0.1409    0.9940 H   0  0  0  0  0  0
    2.1307   -1.5252    0.3236 H   0  0  0  0  0  0
   -3.5911    0.9717   -1.4115 N   0  3  0  0  0  0
   -4.3212    1.0410   -0.6929 H   0  0  0  0  0  0
   -3.8386    0.2335   -2.0809 H   0  0  0  0  0  0
  1  2  1  0  0  0
  2  3  1  0  0  0
  2  4  1  0  0  0
  2 27  1  0  0  0
  4  5  1  0  0  0
  5  6  2  0  0  0
  5 26  1  0  0  0
  6  7  1  0  0  0
  6 28  1  0  0  0
  7  8  2  0  0  0
  7 29  1  0  0  0
  8  9  1  0  0  0
  8 30  1  0  0  0
  9 10  1  0  0  0
  9 26  2  0  0  0
 10 11  2  0  0  0
 10 25  1  0  0  0
 11 12  1  0  0  0
 12 13  1  0  0  0
 13 14  1  0  0  0
 13 25  2  0  0  0
 14 15  1  0  0  0
 14 18  1  0  0  0
 14 31  1  0  0  0
 15 16  1  0  0  0
 15 32  1  0  0  0
 15 33  1  0  0  0
 16 17  1  0  0  0
 16 34  1  0  0  0
 16 35  1  0  0  0
 17 36  1  0  0  0
 17 37  1  0  0  0
 17 45  1  0  0  0
 18 19  1  0  0  0
 18 38  1  0  0  0
 18 45  1  0  0  0
 19 20  2  0  0  0
 19 24  1  0  0  0
 20 21  1  0  0  0
 20 39  1  0  0  0
 21 22  2  0  0  0
 21 40  1  0  0  0
 22 23  1  0  0  0
 22 41  1  0  0  0
 23 24  2  0  0  0
 23 42  1  0  0  0
 24 43  1  0  0  0
 26 44  1  0  0  0
 45 46  1  0  0  0
 45 47  1  0  0  0
M  CHG  1  45   1
M  END
> <energy>
67.3956

> <i_ionizer_Ion_state_n>
1

> <i_ionizer_Tot_Q>
1

> <s_ionizer_Ion_centers>
45

> <s_ionizer_Ion_types>
N5

> <s_ionizer_Ion_ctrs_in>
18

> <r_ionizer_Ionization_penalty>
0.000148807

> <r_ionizer_Ionization_penalty_charging>
0.000148807

> <r_ionizer_Ionization_penalty_neutral>
0

$$$$
ZINC001211850863
                    3D
 Schrodinger Suite 2019-4.
 47 50  0  0  1  0            999 V2000
    3.0873    3.4393   -1.5910 F   0  0  0  0  0  0
    4.3344    3.5395   -1.0719 C   0  0  0  0  0  0
    5.1986    2.9640   -1.9431 F   0  0  0  0  0  0
    4.3820    2.8846    0.1990 O   0  0  0  0  0  0
    4.3567    1.5241    0.0686 C   0  0  0  0  0  0
    5.5542    0.8277    0.2249 C   0  0  0  0  0  0
    5.5669   -0.5602    0.1042 C   0  0  0  0  0  0
    4.3779   -1.2456   -0.1533 C   0  0  0  0  0  0
    3.1601   -0.5533   -0.2651 C   0  0  0  0  0  0
    1.9201   -1.2841   -0.4833 C   0  0  0  0  0  0
    1.8555   -2.4781   -1.0959 N   0  0  0  0  0  0
    0.5141   -2.8279   -0.9995 O   0  0  0  0  0  0
   -0.1106   -1.8142   -0.3294 C   0  0  0  0  0  0
   -1.5386   -2.0541    0.0245 C   0  0  2  0  0  0
   -2.4648   -2.2056   -1.1883 C   0  0  0  0  0  0
   -3.8682   -2.6020   -0.7259 C   0  0  0  0  0  0
   -4.3907   -1.6850    0.3791 C   0  0  0  0  0  0
   -2.1193   -1.0821    1.0895 C   0  0  1  0  0  0
   -2.1936    0.4286    0.8435 C   0  0  0  0  0  0
   -2.6587    1.2431    1.8982 C   0  0  0  0  0  0
   -2.7375    2.6312    1.7714 C   0  0  0  0  0  0
   -2.3541    3.2400    0.5831 C   0  0  0  0  0  0
   -1.8890    2.4598   -0.4713 C   0  0  0  0  0  0
   -1.8085    1.0683   -0.3415 C   0  0  0  0  0  0
    0.7044   -0.8339   -0.0154 N   0  0  0  0  0  0
    3.1552    0.8430   -0.1411 C   0  0  0  0  0  0
    4.5965    4.5943   -0.9540 H   0  0  0  0  0  0
    6.4752    1.3628    0.4336 H   0  0  0  0  0  0
    6.4988   -1.1089    0.2124 H   0  0  0  0  0  0
    4.4047   -2.3299   -0.2464 H   0  0  0  0  0  0
   -1.5244   -3.0456    0.5094 H   0  0  0  0  0  0
   -2.5222   -1.2793   -1.7678 H   0  0  0  0  0  0
   -2.0817   -2.9693   -1.8770 H   0  0  0  0  0  0
   -3.8426   -3.6346   -0.3559 H   0  0  0  0  0  0
   -4.5591   -2.5872   -1.5779 H   0  0  0  0  0  0
   -4.6089   -0.6891   -0.0270 H   0  0  0  0  0  0
   -5.3456   -2.0775    0.7515 H   0  0  0  0  0  0
   -1.4677   -1.1757    1.9728 H   0  0  0  0  0  0
   -2.9704    0.7830    2.8354 H   0  0  0  0  0  0
   -3.0978    3.2300    2.6024 H   0  0  0  0  0  0
   -2.4129    4.3189    0.4788 H   0  0  0  0  0  0
   -1.5786    2.9315   -1.3997 H   0  0  0  0  0  0
   -1.4157    0.5159   -1.1883 H   0  0  0  0  0  0
    2.2213    1.3973   -0.2074 H   0  0  0  0  0  0
   -3.4634   -1.5953    1.5252 N   0  3  0  0  0  0
   -3.8563   -0.9559    2.2260 H   0  0  0  0  0  0
   -3.3492   -2.5281    1.9388 H   0  0  0  0  0  0
  1  2  1  0  0  0
  2  3  1  0  0  0
  2  4  1  0  0  0
  2 27  1  0  0  0
  4  5  1  0  0  0
  5  6  2  0  0  0
  5 26  1  0  0  0
  6  7  1  0  0  0
  6 28  1  0  0  0
  7  8  2  0  0  0
  7 29  1  0  0  0
  8  9  1  0  0  0
  8 30  1  0  0  0
  9 10  1  0  0  0
  9 26  2  0  0  0
 10 11  2  0  0  0
 10 25  1  0  0  0
 11 12  1  0  0  0
 12 13  1  0  0  0
 13 14  1  0  0  0
 13 25  2  0  0  0
 14 15  1  0  0  0
 14 18  1  0  0  0
 14 31  1  0  0  0
 15 16  1  0  0  0
 15 32  1  0  0  0
 15 33  1  0  0  0
 16 17  1  0  0  0
 16 34  1  0  0  0
 16 35  1  0  0  0
 17 36  1  0  0  0
 17 37  1  0  0  0
 17 45  1  0  0  0
 18 19  1  0  0  0
 18 38  1  0  0  0
 18 45  1  0  0  0
 19 20  2  0  0  0
 19 24  1  0  0  0
 20 21  1  0  0  0
 20 39  1  0  0  0
 21 22  2  0  0  0
 21 40  1  0  0  0
 22 23  1  0  0  0
 22 41  1  0  0  0
 23 24  2  0  0  0
 23 42  1  0  0  0
 24 43  1  0  0  0
 26 44  1  0  0  0
 45 46  1  0  0  0
 45 47  1  0  0  0
M  CHG  1  45   1
M  END
> <energy>
72.2022

> <i_ionizer_Ion_state_n>
1

> <i_ionizer_Tot_Q>
1

> <s_ionizer_Ion_centers>
45

> <s_ionizer_Ion_types>
N5

> <s_ionizer_Ion_ctrs_in>
18

> <r_ionizer_Ionization_penalty>
0.000148807

> <r_ionizer_Ionization_penalty_charging>
0.000148807

> <r_ionizer_Ionization_penalty_neutral>
0

$$$$
ZINC001211850864
                    3D
 Schrodinger Suite 2019-4.
 47 50  0  0  1  0            999 V2000
    0.1461   -5.7552    1.3066 F   0  0  0  0  0  0
    0.5251   -4.4512    1.2491 C   0  0  0  0  0  0
    0.5572   -4.1194   -0.0671 F   0  0  0  0  0  0
    1.8398   -4.3528    1.7972 O   0  0  0  0  0  0
    2.3002   -3.0623    1.7523 C   0  0  0  0  0  0
    3.4157   -2.7904    0.9769 C   0  0  0  0  0  0
    3.8879   -1.4806    0.8780 C   0  0  0  0  0  0
    3.2056   -0.4312    1.4999 C   0  0  0  0  0  0
    2.0522   -0.7082    2.2349 C   0  0  0  0  0  0
    1.0767    0.3382    2.5131 C   0  0  0  0  0  0
    0.2239    0.3052    3.5474 N   0  0  0  0  0  0
   -0.9132    0.9493    3.0452 O   0  0  0  0  0  0
   -0.6200    1.3025    1.7547 C   0  0  0  0  0  0
   -1.7702    1.4178    0.8180 C   0  0  1  0  0  0
   -2.2107    2.8267    0.4577 C   0  0  0  0  0  0
   -3.1322    2.8221   -0.7681 C   0  0  0  0  0  0
   -3.7990    1.4664   -0.9964 C   0  0  0  0  0  0
   -1.5959    0.4762   -0.4135 C   0  0  2  0  0  0
   -0.4286    0.6934   -1.3957 C   0  0  0  0  0  0
    0.1200    1.9399   -1.7180 C   0  0  0  0  0  0
    1.1222    2.0776   -2.6886 C   0  0  0  0  0  0
    1.6232    0.9570   -3.3404 C   0  0  0  0  0  0
    1.1503   -0.3038   -2.9947 C   0  0  0  0  0  0
    0.1326   -0.4350   -2.0387 C   0  0  0  0  0  0
    0.6517    1.1252    1.4630 N   0  0  0  0  0  0
    1.6588   -2.0390    2.4431 C   0  0  0  0  0  0
   -0.2275   -3.8457    1.7686 H   0  0  0  0  0  0
    3.9016   -3.5847    0.4146 H   0  0  0  0  0  0
    4.7520   -1.2661    0.2561 H   0  0  0  0  0  0
    3.5260    0.5946    1.3220 H   0  0  0  0  0  0
   -2.6181    0.9965    1.3873 H   0  0  0  0  0  0
   -2.7475    3.2589    1.3068 H   0  0  0  0  0  0
   -1.3711    3.5073    0.2962 H   0  0  0  0  0  0
   -3.8923    3.5994   -0.6483 H   0  0  0  0  0  0
   -2.5558    3.0953   -1.6600 H   0  0  0  0  0  0
   -4.4419    1.2302   -0.1363 H   0  0  0  0  0  0
   -4.4619    1.5201   -1.8691 H   0  0  0  0  0  0
   -1.4220   -0.5216    0.0090 H   0  0  0  0  0  0
   -0.2041    2.8525   -1.2372 H   0  0  0  0  0  0
    1.5215    3.0633   -2.9165 H   0  0  0  0  0  0
    2.3917    1.0638   -4.1008 H   0  0  0  0  0  0
    1.5789   -1.1885   -3.4561 H   0  0  0  0  0  0
   -0.2173   -1.4379   -1.7973 H   0  0  0  0  0  0
    0.7907   -2.2492    3.0637 H   0  0  0  0  0  0
   -2.8754    0.3154   -1.1870 N   0  3  0  0  0  0
   -3.3461   -0.5411   -0.8725 H   0  0  0  0  0  0
   -2.6499    0.2351   -2.1855 H   0  0  0  0  0  0
  1  2  1  0  0  0
  2  3  1  0  0  0
  2  4  1  0  0  0
  2 27  1  0  0  0
  4  5  1  0  0  0
  5  6  2  0  0  0
  5 26  1  0  0  0
  6  7  1  0  0  0
  6 28  1  0  0  0
  7  8  2  0  0  0
  7 29  1  0  0  0
  8  9  1  0  0  0
  8 30  1  0  0  0
  9 10  1  0  0  0
  9 26  2  0  0  0
 10 11  2  0  0  0
 10 25  1  0  0  0
 11 12  1  0  0  0
 12 13  1  0  0  0
 13 14  1  0  0  0
 13 25  2  0  0  0
 14 15  1  0  0  0
 14 18  1  0  0  0
 14 31  1  0  0  0
 15 16  1  0  0  0
 15 32  1  0  0  0
 15 33  1  0  0  0
 16 17  1  0  0  0
 16 34  1  0  0  0
 16 35  1  0  0  0
 17 36  1  0  0  0
 17 37  1  0  0  0
 17 45  1  0  0  0
 18 19  1  0  0  0
 18 38  1  0  0  0
 18 45  1  0  0  0
 19 20  2  0  0  0
 19 24  1  0  0  0
 20 21  1  0  0  0
 20 39  1  0  0  0
 21 22  2  0  0  0
 21 40  1  0  0  0
 22 23  1  0  0  0
 22 41  1  0  0  0
 23 24  2  0  0  0
 23 42  1  0  0  0
 24 43  1  0  0  0
 26 44  1  0  0  0
 45 46  1  0  0  0
 45 47  1  0  0  0
M  CHG  1  45   1
M  END
> <energy>
94.3435

> <i_ionizer_Ion_state_n>
1

> <i_ionizer_Tot_Q>
1

> <s_ionizer_Ion_centers>
45

> <s_ionizer_Ion_types>
N5

> <s_ionizer_Ion_ctrs_in>
18

> <r_ionizer_Ionization_penalty>
0.000148807

> <r_ionizer_Ionization_penalty_charging>
0.000148807

> <r_ionizer_Ionization_penalty_neutral>
0

$$$$
ZINC001211850865
                    3D
 Schrodinger Suite 2019-4.
 47 50  0  0  1  0            999 V2000
    4.8905   -2.5751    4.3931 F   0  0  0  0  0  0
    5.2381   -2.0877    3.1757 C   0  0  0  0  0  0
    5.8479   -0.8962    3.3996 F   0  0  0  0  0  0
    4.0402   -1.8743    2.4482 O   0  0  0  0  0  0
    4.1632   -1.3550    1.1893 C   0  0  0  0  0  0
    5.3558   -1.0416    0.5375 C   0  0  0  0  0  0
    5.3295   -0.4884   -0.7478 C   0  0  0  0  0  0
    4.1115   -0.2307   -1.3790 C   0  0  0  0  0  0
    2.9052   -0.5254   -0.7293 C   0  0  0  0  0  0
    1.6233   -0.1642   -1.3124 C   0  0  0  0  0  0
    1.3782   -0.1108   -2.6331 N   0  0  0  0  0  0
    0.0789    0.3982   -2.7016 O   0  0  0  0  0  0
   -0.3274    0.6135   -1.4165 C   0  0  0  0  0  0
   -1.6219    1.3359   -1.2318 C   0  0  2  0  0  0
   -1.3467    2.8518   -1.2601 C   0  0  0  0  0  0
   -2.6031    3.6515   -0.9429 C   0  0  0  0  0  0
   -3.1890    3.2238    0.3974 C   0  0  0  0  0  0
   -2.3305    0.9437    0.0942 C   0  0  2  0  0  0
   -2.8061   -0.5064    0.0759 C   0  0  0  0  0  0
   -2.1726   -1.4797    0.8623 C   0  0  0  0  0  0
   -2.6110   -2.8066    0.8420 C   0  0  0  0  0  0
   -3.6843   -3.1775    0.0350 C   0  0  0  0  0  0
   -4.3342   -2.2187   -0.7378 C   0  0  0  0  0  0
   -3.8975   -0.8938   -0.7196 C   0  0  0  0  0  0
    0.5713    0.2562   -0.5262 N   0  0  0  0  0  0
    2.9476   -1.1052    0.5475 C   0  0  0  0  0  0
    5.9216   -2.7964    2.6935 H   0  0  0  0  0  0
    6.3246   -1.1881    1.0017 H   0  0  0  0  0  0
    6.2632   -0.2374   -1.2496 H   0  0  0  0  0  0
    4.1108    0.2374   -2.3634 H   0  0  0  0  0  0
   -2.2770    1.0975   -2.0792 H   0  0  0  0  0  0
   -0.5688    3.1064   -0.5285 H   0  0  0  0  0  0
   -0.9618    3.1497   -2.2431 H   0  0  0  0  0  0
   -3.3425    3.5062   -1.7409 H   0  0  0  0  0  0
   -2.3710    4.7215   -0.9171 H   0  0  0  0  0  0
   -2.5037    3.4614    1.2187 H   0  0  0  0  0  0
   -4.1117    3.7851    0.5870 H   0  0  0  0  0  0
   -1.6202    1.0630    0.9251 H   0  0  0  0  0  0
   -1.3291   -1.2101    1.4939 H   0  0  0  0  0  0
   -2.1078   -3.5504    1.4537 H   0  0  0  0  0  0
   -4.0188   -4.2110    0.0165 H   0  0  0  0  0  0
   -5.1831   -2.5018   -1.3555 H   0  0  0  0  0  0
   -4.4239   -0.1555   -1.3215 H   0  0  0  0  0  0
    2.0175   -1.3420    1.0599 H   0  0  0  0  0  0
   -3.5248    1.7908    0.3965 N   0  3  0  0  0  0
   -3.8897    1.5340    1.3212 H   0  0  0  0  0  0
   -4.2443    1.6181   -0.3154 H   0  0  0  0  0  0
  1  2  1  0  0  0
  2  3  1  0  0  0
  2  4  1  0  0  0
  2 27  1  0  0  0
  4  5  1  0  0  0
  5  6  2  0  0  0
  5 26  1  0  0  0
  6  7  1  0  0  0
  6 28  1  0  0  0
  7  8  2  0  0  0
  7 29  1  0  0  0
  8  9  1  0  0  0
  8 30  1  0  0  0
  9 10  1  0  0  0
  9 26  2  0  0  0
 10 11  2  0  0  0
 10 25  1  0  0  0
 11 12  1  0  0  0
 12 13  1  0  0  0
 13 14  1  0  0  0
 13 25  2  0  0  0
 14 15  1  0  0  0
 14 18  1  0  0  0
 14 31  1  0  0  0
 15 16  1  0  0  0
 15 32  1  0  0  0
 15 33  1  0  0  0
 16 17  1  0  0  0
 16 34  1  0  0  0
 16 35  1  0  0  0
 17 36  1  0  0  0
 17 37  1  0  0  0
 17 45  1  0  0  0
 18 19  1  0  0  0
 18 38  1  0  0  0
 18 45  1  0  0  0
 19 20  2  0  0  0
 19 24  1  0  0  0
 20 21  1  0  0  0
 20 39  1  0  0  0
 21 22  2  0  0  0
 21 40  1  0  0  0
 22 23  1  0  0  0
 22 41  1  0  0  0
 23 24  2  0  0  0
 23 42  1  0  0  0
 24 43  1  0  0  0
 26 44  1  0  0  0
 45 46  1  0  0  0
 45 47  1  0  0  0
M  CHG  1  45   1
M  END
> <energy>
59.9182

> <i_ionizer_Ion_state_n>
1

> <i_ionizer_Tot_Q>
1

> <s_ionizer_Ion_centers>
45

> <s_ionizer_Ion_types>
N5

> <s_ionizer_Ion_ctrs_in>
18

> <r_ionizer_Ionization_penalty>
0.000148807

> <r_ionizer_Ionization_penalty_charging>
0.000148807

> <r_ionizer_Ionization_penalty_neutral>
0

$$$$
ZINC001211851068
                    3D
 Schrodinger Suite 2019-4.
 37 39  0  0  1  0            999 V2000
    1.0330    1.9567   -0.7016 C   0  0  0  0  0  0
    2.4413    1.8914   -1.0669 N   0  0  0  0  0  0
    2.8882    2.8380   -2.0797 C   0  0  0  0  0  0
    3.3407    0.9407   -0.5790 C   0  0  0  0  0  0
    4.5364    0.9123   -0.8505 O   0  0  0  0  0  0
    2.8091   -0.1452    0.2623 C   0  0  0  0  0  0
    1.9491   -1.0898   -0.3084 C   0  0  0  0  0  0
    1.3816   -2.0873    0.4937 C   0  0  0  0  0  0
    0.4164   -2.9740   -0.0513 N   0  0  0  0  0  0
   -0.8216   -2.5203   -0.4068 C   0  0  0  0  0  0
   -1.6058   -1.6621    0.3892 C   0  0  0  0  0  0
   -2.7017   -1.3379   -0.3842 C   0  0  0  0  0  0
   -3.7587   -0.4162   -0.0748 C   0  0  0  0  0  0
   -4.1696    0.0027    1.1827 C   0  0  0  0  0  0
   -5.1855    1.0032    1.1209 C   0  0  0  0  0  0
   -5.5154    1.2859   -0.1786 C   0  0  0  0  0  0
   -6.6651    2.4476   -0.7129 Cl  0  0  0  0  0  0
   -4.6659    0.3567   -1.3086 S   0  0  0  0  0  0
   -2.5963   -2.0347   -1.5588 O   0  0  0  0  0  0
   -1.4332   -2.7872   -1.5633 N   0  0  0  0  0  0
    1.7130   -2.1574    1.8513 C   0  0  0  0  0  0
    2.6008   -1.2315    2.4069 C   0  0  0  0  0  0
    3.1467   -0.2259    1.6097 C   0  0  0  0  0  0
    3.9558    0.6807    2.1754 F   0  0  0  0  0  0
    0.8393    1.4628    0.2518 H   0  0  0  0  0  0
    0.4430    1.4804   -1.4879 H   0  0  0  0  0  0
    0.7349    3.0026   -0.6019 H   0  0  0  0  0  0
    3.9628    2.7680   -2.2719 H   0  0  0  0  0  0
    2.3504    2.6404   -3.0140 H   0  0  0  0  0  0
    2.6570    3.8540   -1.7449 H   0  0  0  0  0  0
    1.6972   -1.0217   -1.3657 H   0  0  0  0  0  0
    0.8413   -3.4722   -0.8329 H   0  0  0  0  0  0
   -1.3633   -1.2728    1.3660 H   0  0  0  0  0  0
   -3.7520   -0.3739    2.1096 H   0  0  0  0  0  0
   -5.6287    1.4868    1.9835 H   0  0  0  0  0  0
    1.2712   -2.9284    2.4798 H   0  0  0  0  0  0
    2.8539   -1.2724    3.4617 H   0  0  0  0  0  0
  1  2  1  0  0  0
  1 25  1  0  0  0
  1 26  1  0  0  0
  1 27  1  0  0  0
  2  3  1  0  0  0
  2  4  1  0  0  0
  3 28  1  0  0  0
  3 29  1  0  0  0
  3 30  1  0  0  0
  4  5  2  0  0  0
  4  6  1  0  0  0
  6  7  2  0  0  0
  6 23  1  0  0  0
  7  8  1  0  0  0
  7 31  1  0  0  0
  8  9  1  0  0  0
  8 21  2  0  0  0
  9 10  1  0  0  0
  9 32  1  0  0  0
 10 11  1  0  0  0
 10 20  2  0  0  0
 11 12  2  0  0  0
 11 33  1  0  0  0
 12 13  1  0  0  0
 12 19  1  0  0  0
 13 14  2  0  0  0
 13 18  1  0  0  0
 14 15  1  0  0  0
 14 34  1  0  0  0
 15 16  2  0  0  0
 15 35  1  0  0  0
 16 17  1  0  0  0
 16 18  1  0  0  0
 19 20  1  0  0  0
 21 22  1  0  0  0
 21 36  1  0  0  0
 22 23  2  0  0  0
 22 37  1  0  0  0
 23 24  1  0  0  0
M  END
> <energy>
4.75898

> <i_ionizer_Ion_state_n>
0

> <i_ionizer_Tot_Q>
0

> <s_ionizer_Ion_centers>


> <s_ionizer_Ion_types>


> <s_ionizer_Ion_ctrs_in>


> <r_ionizer_Ionization_penalty>
0

> <r_ionizer_Ionization_penalty_charging>
0

> <r_ionizer_Ionization_penalty_neutral>
0

$$$$
ZINC001211851288
                    3D
 Schrodinger Suite 2019-4.
 50 52  0  0  1  0            999 V2000
   -3.4319    2.9966   -0.1330 C   0  0  0  0  0  0
   -3.6249    1.7249    0.6986 C   0  0  0  0  0  0
   -3.6262    2.0211    2.1965 C   0  0  0  0  0  0
   -2.6756    0.6651    0.3659 N   0  0  0  0  0  0
   -3.1620   -0.5617    0.0722 N   0  0  0  0  0  0
   -2.0792   -1.3072   -0.1967 C   0  0  0  0  0  0
   -2.1868   -2.7295   -0.5133 C   0  0  0  0  0  0
   -3.2723   -3.2077   -1.2592 C   0  0  0  0  0  0
   -3.3771   -4.5665   -1.5674 C   0  0  0  0  0  0
   -2.4042   -5.4603   -1.1233 C   0  0  0  0  0  0
   -1.3234   -4.9980   -0.3742 C   0  0  0  0  0  0
   -1.2123   -3.6374   -0.0723 C   0  0  0  0  0  0
   -0.8993   -0.5247   -0.1108 C   0  0  0  0  0  0
   -1.3038    0.7306    0.2886 C   0  0  0  0  0  0
   -0.6067    1.8644    0.5836 N   0  0  0  0  0  0
    0.6582    2.0958   -0.0127 C   0  0  0  0  0  0
    0.7294    2.5566   -1.3378 C   0  0  0  0  0  0
    1.9663    2.7263   -1.9675 C   0  0  0  0  0  0
    3.1316    2.3840   -1.2916 C   0  0  0  0  0  0
    4.3080    2.5167   -1.9218 F   0  0  0  0  0  0
    3.0623    1.8816    0.0040 C   0  0  0  0  0  0
    4.2752    1.4420    0.7021 C   0  0  0  0  0  0
    4.7552    2.2157    1.5247 O   0  0  0  0  0  0
    4.7564    0.1564    0.4468 N   0  0  0  0  0  0
    5.8447   -0.3404    1.2714 C   0  0  0  0  0  0
    4.0517   -0.8297   -0.3607 C   0  0  0  0  0  0
    1.8343    1.7584    0.6601 C   0  0  0  0  0  0
   -2.5116    3.5302    0.1273 H   0  0  0  0  0  0
   -4.2601    3.6911    0.0379 H   0  0  0  0  0  0
   -3.3959    2.7657   -1.2031 H   0  0  0  0  0  0
   -4.6172    1.3289    0.4404 H   0  0  0  0  0  0
   -3.7769    1.1054    2.7779 H   0  0  0  0  0  0
   -2.6844    2.4678    2.5293 H   0  0  0  0  0  0
   -4.4326    2.7160    2.4508 H   0  0  0  0  0  0
   -4.0389   -2.5178   -1.6061 H   0  0  0  0  0  0
   -4.2227   -4.9259   -2.1493 H   0  0  0  0  0  0
   -2.4913   -6.5196   -1.3567 H   0  0  0  0  0  0
   -0.5710   -5.6983   -0.0176 H   0  0  0  0  0  0
   -0.3698   -3.2998    0.5262 H   0  0  0  0  0  0
    0.1144   -0.8520   -0.2865 H   0  0  0  0  0  0
   -0.5418    2.0495    1.5869 H   0  0  0  0  0  0
   -0.1871    2.8025   -1.8711 H   0  0  0  0  0  0
    2.0181    3.1049   -2.9834 H   0  0  0  0  0  0
    5.4373   -1.0213    2.0237 H   0  0  0  0  0  0
    6.5547   -0.8798    0.6386 H   0  0  0  0  0  0
    6.3713    0.4717    1.7769 H   0  0  0  0  0  0
    3.5070   -0.3608   -1.1813 H   0  0  0  0  0  0
    4.7666   -1.5415   -0.7849 H   0  0  0  0  0  0
    3.3395   -1.3624    0.2775 H   0  0  0  0  0  0
    1.8049    1.3724    1.6742 H   0  0  0  0  0  0
  1  2  1  0  0  0
  1 28  1  0  0  0
  1 29  1  0  0  0
  1 30  1  0  0  0
  2  3  1  0  0  0
  2  4  1  0  0  0
  2 31  1  0  0  0
  3 32  1  0  0  0
  3 33  1  0  0  0
  3 34  1  0  0  0
  4  5  1  0  0  0
  4 14  1  0  0  0
  5  6  2  0  0  0
  6  7  1  0  0  0
  6 13  1  0  0  0
  7  8  2  0  0  0
  7 12  1  0  0  0
  8  9  1  0  0  0
  8 35  1  0  0  0
  9 10  2  0  0  0
  9 36  1  0  0  0
 10 11  1  0  0  0
 10 37  1  0  0  0
 11 12  2  0  0  0
 11 38  1  0  0  0
 12 39  1  0  0  0
 13 14  2  0  0  0
 13 40  1  0  0  0
 14 15  1  0  0  0
 15 16  1  0  0  0
 15 41  1  0  0  0
 16 17  2  0  0  0
 16 27  1  0  0  0
 17 18  1  0  0  0
 17 42  1  0  0  0
 18 19  2  0  0  0
 18 43  1  0  0  0
 19 20  1  0  0  0
 19 21  1  0  0  0
 21 22  1  0  0  0
 21 27  2  0  0  0
 22 23  2  0  0  0
 22 24  1  0  0  0
 24 25  1  0  0  0
 24 26  1  0  0  0
 25 44  1  0  0  0
 25 45  1  0  0  0
 25 46  1  0  0  0
 26 47  1  0  0  0
 26 48  1  0  0  0
 26 49  1  0  0  0
 27 50  1  0  0  0
M  END
> <energy>
66.127

> <i_ionizer_Ion_state_n>
0

> <i_ionizer_Tot_Q>
0

> <s_ionizer_Ion_centers>


> <s_ionizer_Ion_types>


> <s_ionizer_Ion_ctrs_in>


> <r_ionizer_Ionization_penalty>
0

> <r_ionizer_Ionization_penalty_charging>
0

> <r_ionizer_Ionization_penalty_neutral>
0

$$$$
ZINC001211851339
                    3D
 Schrodinger Suite 2019-4.
 43 45  0  0  1  0            999 V2000
    2.2013    1.3188   -1.1719 C   0  0  0  0  0  0
    3.4626    0.9958   -0.5248 N   0  0  0  0  0  0
    4.3048    2.1220   -0.1502 C   0  0  0  0  0  0
    3.8401   -0.2872   -0.1372 C   0  0  0  0  0  0
    4.8956   -0.5546    0.4318 O   0  0  0  0  0  0
    2.8987   -1.3939   -0.3543 C   0  0  0  0  0  0
    1.8607   -1.5832    0.5612 C   0  0  0  0  0  0
    0.9489   -2.6319    0.3801 C   0  0  0  0  0  0
   -0.1366   -2.7987    1.2776 N   0  0  0  0  0  0
   -0.8784   -1.6798    1.7306 C   0  0  0  0  0  0
   -1.6019   -0.9252    0.8048 C   0  0  0  0  0  0
   -2.3024    0.2118    1.2155 C   0  0  0  0  0  0
   -3.0437    1.0169    0.2445 C   0  0  0  0  0  0
   -2.3615    1.8119   -0.6914 C   0  0  0  0  0  0
   -3.0626    2.5307   -1.6639 C   0  0  0  0  0  0
   -4.4542    2.4672   -1.7080 C   0  0  0  0  0  0
   -5.1445    1.6933   -0.7783 C   0  0  0  0  0  0
   -4.4442    0.9763    0.1964 C   0  0  0  0  0  0
   -2.2564    0.5496    2.5651 C   0  0  0  0  0  0
   -1.5180   -0.2574    3.4125 C   0  0  0  0  0  0
   -1.4167    0.1041    5.0883 Cl  0  0  0  0  0  0
   -0.8350   -1.3553    3.0334 N   0  0  0  0  0  0
    1.1577   -3.5468   -0.6612 C   0  0  0  0  0  0
    2.1995   -3.3510   -1.5769 C   0  0  0  0  0  0
    3.0588   -2.2637   -1.4249 C   0  0  0  0  0  0
    4.0284   -2.0737   -2.3312 F   0  0  0  0  0  0
    2.3739    2.0886   -1.9313 H   0  0  0  0  0  0
    1.5051    1.6936   -0.4141 H   0  0  0  0  0  0
    1.7565    0.4525   -1.6670 H   0  0  0  0  0  0
    3.7521    2.7698    0.5370 H   0  0  0  0  0  0
    5.2300    1.8128    0.3443 H   0  0  0  0  0  0
    4.5582    2.6941   -1.0475 H   0  0  0  0  0  0
    1.7714   -0.9195    1.4181 H   0  0  0  0  0  0
   -0.7998   -3.4729    0.9043 H   0  0  0  0  0  0
   -1.6064   -1.2162   -0.2426 H   0  0  0  0  0  0
   -1.2748    1.8732   -0.6722 H   0  0  0  0  0  0
   -2.5232    3.1383   -2.3868 H   0  0  0  0  0  0
   -5.0002    3.0165   -2.4715 H   0  0  0  0  0  0
   -6.2303    1.6414   -0.8126 H   0  0  0  0  0  0
   -5.0008    0.3659    0.9069 H   0  0  0  0  0  0
   -2.7733    1.4203    2.9492 H   0  0  0  0  0  0
    0.5109   -4.4125   -0.7798 H   0  0  0  0  0  0
    2.3501   -4.0418   -2.4020 H   0  0  0  0  0  0
  1  2  1  0  0  0
  1 27  1  0  0  0
  1 28  1  0  0  0
  1 29  1  0  0  0
  2  3  1  0  0  0
  2  4  1  0  0  0
  3 30  1  0  0  0
  3 31  1  0  0  0
  3 32  1  0  0  0
  4  5  2  0  0  0
  4  6  1  0  0  0
  6  7  2  0  0  0
  6 25  1  0  0  0
  7  8  1  0  0  0
  7 33  1  0  0  0
  8  9  1  0  0  0
  8 23  2  0  0  0
  9 10  1  0  0  0
  9 34  1  0  0  0
 10 11  2  0  0  0
 10 22  1  0  0  0
 11 12  1  0  0  0
 11 35  1  0  0  0
 12 13  1  0  0  0
 12 19  2  0  0  0
 13 14  2  0  0  0
 13 18  1  0  0  0
 14 15  1  0  0  0
 14 36  1  0  0  0
 15 16  2  0  0  0
 15 37  1  0  0  0
 16 17  1  0  0  0
 16 38  1  0  0  0
 17 18  2  0  0  0
 17 39  1  0  0  0
 18 40  1  0  0  0
 19 20  1  0  0  0
 19 41  1  0  0  0
 20 21  1  0  0  0
 20 22  2  0  0  0
 23 24  1  0  0  0
 23 42  1  0  0  0
 24 25  2  0  0  0
 24 43  1  0  0  0
 25 26  1  0  0  0
M  END
> <energy>
14.2179

> <i_ionizer_Ion_state_n>
0

> <i_ionizer_Tot_Q>
0

> <s_ionizer_Ion_centers>


> <s_ionizer_Ion_types>


> <s_ionizer_Ion_ctrs_in>


> <r_ionizer_Ionization_penalty>
0.00741239

> <r_ionizer_Ionization_penalty_charging>
0

> <r_ionizer_Ionization_penalty_neutral>
0.00741239

$$$$
ZINC001211851871
                    3D
 Schrodinger Suite 2019-4.
 47 50  0  0  1  0            999 V2000
    4.9612   -2.8142    0.7803 C   0  0  0  0  0  0
    4.7202   -1.4215    0.4336 N   0  0  0  0  0  0
    5.4994   -0.4357    1.1635 C   0  0  0  0  0  0
    3.8239   -1.1267   -0.5933 C   0  0  0  0  0  0
    3.2929   -1.9800   -1.3011 O   0  0  0  0  0  0
    3.4163    0.2747   -0.7845 C   0  0  0  0  0  0
    2.7489    0.9252    0.2557 C   0  0  0  0  0  0
    2.2163    2.2016    0.0695 C   0  0  0  0  0  0
    1.3308    2.7428    1.0408 N   0  0  0  0  0  0
    0.0150    2.2592    1.1207 C   0  0  0  0  0  0
   -1.0428    3.2615    1.3280 C   0  0  0  0  0  0
   -2.3365    2.9182    1.1931 C   0  0  0  0  0  0
   -2.6509    1.5968    0.9060 N   0  0  0  0  0  0
   -3.8613    1.0320    0.5929 C   0  0  0  0  0  0
   -3.5993   -0.3031    0.3539 C   0  0  0  0  0  0
   -4.5363   -1.3010   -0.1434 C   0  0  0  0  0  0
   -5.7681   -0.9315   -0.6926 C   0  0  0  0  0  0
   -6.5943   -1.8859   -1.2856 C   0  0  0  0  0  0
   -6.2071   -3.2254   -1.3211 C   0  0  0  0  0  0
   -4.9988   -3.6124   -0.7466 C   0  0  0  0  0  0
   -4.1670   -2.6545   -0.1623 C   0  0  0  0  0  0
   -2.2701   -0.5741    0.5650 N   0  0  0  0  0  0
   -1.7141    0.5868    0.8303 C   0  0  0  0  0  0
   -0.3511    0.9600    0.9545 C   0  0  0  0  0  0
    2.4134    2.8402   -1.1642 C   0  0  0  0  0  0
    3.1039    2.1995   -2.2012 C   0  0  0  0  0  0
    3.5890    0.9095   -2.0069 C   0  0  0  0  0  0
    4.2270    0.3062   -3.0145 F   0  0  0  0  0  0
    5.9737   -3.0756    0.4676 H   0  0  0  0  0  0
    4.8938   -2.9310    1.8645 H   0  0  0  0  0  0
    4.2481   -3.4925    0.3102 H   0  0  0  0  0  0
    5.4659    0.5557    0.7108 H   0  0  0  0  0  0
    5.1217   -0.3688    2.1863 H   0  0  0  0  0  0
    6.5427   -0.7595    1.1826 H   0  0  0  0  0  0
    2.5919    0.4060    1.1966 H   0  0  0  0  0  0
    1.3354    3.7614    0.9971 H   0  0  0  0  0  0
   -0.7751    4.2793    1.5722 H   0  0  0  0  0  0
   -3.1555    3.6172    1.2968 H   0  0  0  0  0  0
   -4.7419    1.6443    0.5114 H   0  0  0  0  0  0
   -6.0814    0.1068   -0.6987 H   0  0  0  0  0  0
   -7.5297   -1.5752   -1.7387 H   0  0  0  0  0  0
   -6.8356   -3.9584   -1.8152 H   0  0  0  0  0  0
   -4.6978   -4.6543   -0.7739 H   0  0  0  0  0  0
   -3.2126   -2.9670    0.2558 H   0  0  0  0  0  0
    0.3596    0.1581    0.8138 H   0  0  0  0  0  0
    2.0035    3.8268   -1.3449 H   0  0  0  0  0  0
    3.2327    2.6784   -3.1650 H   0  0  0  0  0  0
  1  2  1  0  0  0
  1 29  1  0  0  0
  1 30  1  0  0  0
  1 31  1  0  0  0
  2  3  1  0  0  0
  2  4  1  0  0  0
  3 32  1  0  0  0
  3 33  1  0  0  0
  3 34  1  0  0  0
  4  5  2  0  0  0
  4  6  1  0  0  0
  6  7  2  0  0  0
  6 27  1  0  0  0
  7  8  1  0  0  0
  7 35  1  0  0  0
  8  9  1  0  0  0
  8 25  2  0  0  0
  9 10  1  0  0  0
  9 36  1  0  0  0
 10 11  1  0  0  0
 10 24  2  0  0  0
 11 12  2  0  0  0
 11 37  1  0  0  0
 12 13  1  0  0  0
 12 38  1  0  0  0
 13 14  1  0  0  0
 13 23  1  0  0  0
 14 15  2  0  0  0
 14 39  1  0  0  0
 15 16  1  0  0  0
 15 22  1  0  0  0
 16 17  2  0  0  0
 16 21  1  0  0  0
 17 18  1  0  0  0
 17 40  1  0  0  0
 18 19  2  0  0  0
 18 41  1  0  0  0
 19 20  1  0  0  0
 19 42  1  0  0  0
 20 21  2  0  0  0
 20 43  1  0  0  0
 21 44  1  0  0  0
 22 23  2  0  0  0
 23 24  1  0  0  0
 24 45  1  0  0  0
 25 26  1  0  0  0
 25 46  1  0  0  0
 26 27  2  0  0  0
 26 47  1  0  0  0
 27 28  1  0  0  0
M  END
> <energy>
54.2449

> <i_ionizer_Ion_state_n>
0

> <i_ionizer_Tot_Q>
0

> <s_ionizer_Ion_centers>


> <s_ionizer_Ion_types>


> <s_ionizer_Ion_ctrs_in>


> <r_ionizer_Ionization_penalty>
0.198553

> <r_ionizer_Ionization_penalty_charging>
0

> <r_ionizer_Ionization_penalty_neutral>
0.198553

$$$$
ZINC001211852170
                    3D
 Schrodinger Suite 2019-4.
 33 34  0  0  1  0            999 V2000
   -2.5014   -0.9858    0.8053 C   0  0  0  0  0  0
   -3.0421   -0.2250   -0.3120 N   0  0  0  0  0  0
   -4.3858   -0.5827   -0.7434 C   0  0  0  0  0  0
   -2.5399    1.0163   -0.7102 C   0  0  0  0  0  0
   -3.0959    1.7579   -1.5162 O   0  0  0  0  0  0
   -1.2518    1.4736   -0.1670 C   0  0  0  0  0  0
   -0.0507    0.9353   -0.6479 C   0  0  0  0  0  0
    1.1677    1.4170   -0.1528 C   0  0  0  0  0  0
    2.4124    0.9235   -0.6290 N   0  0  0  0  0  0
    2.8284   -0.4280   -0.4346 C   0  0  0  0  0  0
    3.0232   -1.0047    0.8304 C   0  0  0  0  0  0
    2.8780   -0.0983    2.2970 Cl  0  0  0  0  0  0
    3.3951   -2.3435    0.9585 C   0  0  0  0  0  0
    3.5638   -3.0772   -0.1949 C   0  0  0  0  0  0
    3.9879   -4.7347   -0.1260 Cl  0  0  0  0  0  0
    3.4206   -2.5818   -1.4339 N   0  0  0  0  0  0
    3.0693   -1.2821   -1.5161 C   0  0  0  0  0  0
    2.9028   -0.7267   -3.1390 Cl  0  0  0  0  0  0
    1.1678    2.4633    0.7843 C   0  0  0  0  0  0
   -0.0327    2.9918    1.2628 C   0  0  0  0  0  0
   -1.2387    2.4991    0.7779 C   0  0  0  0  0  0
   -2.3834    3.0247    1.2359 F   0  0  0  0  0  0
   -1.4170   -0.8738    0.8741 H   0  0  0  0  0  0
   -2.7280   -2.0479    0.6686 H   0  0  0  0  0  0
   -2.9587   -0.6225    1.7310 H   0  0  0  0  0  0
   -4.4224   -1.6545   -0.9540 H   0  0  0  0  0  0
   -5.0967   -0.3445    0.0525 H   0  0  0  0  0  0
   -4.6810   -0.0442   -1.6479 H   0  0  0  0  0  0
   -0.0756    0.1658   -1.4142 H   0  0  0  0  0  0
    2.4601    1.1388   -1.6295 H   0  0  0  0  0  0
    3.5457   -2.7942    1.9334 H   0  0  0  0  0  0
    2.1131    2.8526    1.1588 H   0  0  0  0  0  0
   -0.0344    3.7922    1.9982 H   0  0  0  0  0  0
  1  2  1  0  0  0
  1 23  1  0  0  0
  1 24  1  0  0  0
  1 25  1  0  0  0
  2  3  1  0  0  0
  2  4  1  0  0  0
  3 26  1  0  0  0
  3 27  1  0  0  0
  3 28  1  0  0  0
  4  5  2  0  0  0
  4  6  1  0  0  0
  6  7  2  0  0  0
  6 21  1  0  0  0
  7  8  1  0  0  0
  7 29  1  0  0  0
  8  9  1  0  0  0
  8 19  2  0  0  0
  9 10  1  0  0  0
  9 30  1  0  0  0
 10 11  2  0  0  0
 10 17  1  0  0  0
 11 12  1  0  0  0
 11 13  1  0  0  0
 13 14  2  0  0  0
 13 31  1  0  0  0
 14 15  1  0  0  0
 14 16  1  0  0  0
 16 17  2  0  0  0
 17 18  1  0  0  0
 19 20  1  0  0  0
 19 32  1  0  0  0
 20 21  2  0  0  0
 20 33  1  0  0  0
 21 22  1  0  0  0
M  END
> <energy>
38.1472

> <i_ionizer_Ion_state_n>
0

> <i_ionizer_Tot_Q>
0

> <s_ionizer_Ion_centers>


> <s_ionizer_Ion_types>


> <s_ionizer_Ion_ctrs_in>


> <r_ionizer_Ionization_penalty>
0.00741239

> <r_ionizer_Ionization_penalty_charging>
0

> <r_ionizer_Ionization_penalty_neutral>
0.00741239

$$$$
ZINC001211852201
                    3D
 Schrodinger Suite 2019-4.
 43 45  0  0  1  0            999 V2000
    2.6605    0.3253    0.5316 C   0  0  0  0  0  0
    2.1783    0.2446   -0.8800 C   0  0  0  0  0  0
    1.9048   -0.9374   -1.5599 C   0  0  0  0  0  0
    1.8563   -2.2130   -1.0623 N   0  0  0  0  0  0
    0.9328   -2.4733   -0.0014 C   0  0  0  0  0  0
    1.2242   -3.4422    0.9699 C   0  0  0  0  0  0
    0.3739   -3.6205    2.0695 C   0  0  0  0  0  0
   -0.7881   -2.8584    2.1811 C   0  0  0  0  0  0
   -1.5696   -3.0178    3.2574 F   0  0  0  0  0  0
   -1.1283   -1.9655    1.1738 C   0  0  0  0  0  0
   -2.3312   -1.1270    1.2600 C   0  0  0  0  0  0
   -2.2211   -0.0625    1.8572 O   0  0  0  0  0  0
   -3.4755   -1.5418    0.5808 N   0  0  0  0  0  0
   -3.5762   -2.7844   -0.1717 C   0  0  0  0  0  0
   -4.5822   -0.6083    0.4454 C   0  0  0  0  0  0
   -0.2880   -1.7855    0.0754 C   0  0  0  0  0  0
    1.5082   -0.5505   -3.1796 S   0  0  0  0  0  0
    1.5212    1.0894   -2.9755 N   0  0  0  0  0  0
    1.8042    1.3794   -1.7024 C   0  0  0  0  0  0
    1.6686    2.7629   -1.2352 C   0  0  0  0  0  0
    2.3102    3.8157   -1.8991 C   0  0  0  0  0  0
    2.1488    5.1314   -1.4513 C   0  0  0  0  0  0
    1.3426    5.4051   -0.3450 C   0  0  0  0  0  0
    0.6843    4.3656    0.3083 C   0  0  0  0  0  0
    0.8449    3.0505   -0.1341 C   0  0  0  0  0  0
    3.2540    1.2274    0.6969 H   0  0  0  0  0  0
    1.8202    0.3333    1.2319 H   0  0  0  0  0  0
    3.3010   -0.5279    0.7771 H   0  0  0  0  0  0
    2.7668   -2.5741   -0.7832 H   0  0  0  0  0  0
    2.1319   -4.0380    0.9012 H   0  0  0  0  0  0
    0.6184   -4.3404    2.8453 H   0  0  0  0  0  0
   -2.8826   -3.5400    0.1972 H   0  0  0  0  0  0
   -4.5906   -3.1773   -0.0725 H   0  0  0  0  0  0
   -3.3623   -2.5820   -1.2246 H   0  0  0  0  0  0
   -4.6657   -0.3052   -0.6043 H   0  0  0  0  0  0
   -5.5103   -1.1046    0.7525 H   0  0  0  0  0  0
   -4.4434    0.2865    1.0595 H   0  0  0  0  0  0
   -0.5771   -1.0671   -0.6899 H   0  0  0  0  0  0
    2.9334    3.6206   -2.7675 H   0  0  0  0  0  0
    2.6448    5.9483   -1.9687 H   0  0  0  0  0  0
    1.2134    6.4304    0.0008 H   0  0  0  0  0  0
    0.0400    4.5739    1.1594 H   0  0  0  0  0  0
    0.3046    2.2542    0.3760 H   0  0  0  0  0  0
  1  2  1  0  0  0
  1 26  1  0  0  0
  1 27  1  0  0  0
  1 28  1  0  0  0
  2  3  2  0  0  0
  2 19  1  0  0  0
  3  4  1  0  0  0
  3 17  1  0  0  0
  4  5  1  0  0  0
  4 29  1  0  0  0
  5  6  2  0  0  0
  5 16  1  0  0  0
  6  7  1  0  0  0
  6 30  1  0  0  0
  7  8  2  0  0  0
  7 31  1  0  0  0
  8  9  1  0  0  0
  8 10  1  0  0  0
 10 11  1  0  0  0
 10 16  2  0  0  0
 11 12  2  0  0  0
 11 13  1  0  0  0
 13 14  1  0  0  0
 13 15  1  0  0  0
 14 32  1  0  0  0
 14 33  1  0  0  0
 14 34  1  0  0  0
 15 35  1  0  0  0
 15 36  1  0  0  0
 15 37  1  0  0  0
 16 38  1  0  0  0
 17 18  1  0  0  0
 18 19  2  0  0  0
 19 20  1  0  0  0
 20 21  2  0  0  0
 20 25  1  0  0  0
 21 22  1  0  0  0
 21 39  1  0  0  0
 22 23  2  0  0  0
 22 40  1  0  0  0
 23 24  1  0  0  0
 23 41  1  0  0  0
 24 25  2  0  0  0
 24 42  1  0  0  0
 25 43  1  0  0  0
M  END
> <energy>
56.8444

> <i_ionizer_Ion_state_n>
0

> <i_ionizer_Tot_Q>
0

> <s_ionizer_Ion_centers>


> <s_ionizer_Ion_types>


> <s_ionizer_Ion_ctrs_in>


> <r_ionizer_Ionization_penalty>
0

> <r_ionizer_Ionization_penalty_charging>
0

> <r_ionizer_Ionization_penalty_neutral>
0

$$$$
ZINC001211852831
                    3D
 Schrodinger Suite 2019-4.
 45 46  0  0  1  0            999 V2000
    5.4277   -1.4525   -1.2626 C   0  0  0  0  0  0
    4.1883   -0.9359   -0.5893 C   0  0  0  0  0  0
    3.6418   -1.6031    0.5088 C   0  0  0  0  0  0
    2.4880   -1.1166    1.1218 C   0  0  0  0  0  0
    1.8742    0.0569    0.6573 C   0  0  0  0  0  0
    0.3711    0.5770    1.4803 S   0  0  0  0  0  0
   -0.0341   -0.4931    2.3720 O   0  0  0  0  0  0
    0.6196    1.9057    2.0040 O   0  0  0  0  0  0
   -0.7878    0.6761    0.2271 N   0  0  0  0  0  0
   -0.9905   -0.4878   -0.6814 C   0  0  0  0  0  0
   -1.6295   -1.7265   -0.0285 C   0  0  0  0  0  0
   -3.0453   -1.9644   -0.5585 C   0  0  0  0  0  0
   -0.7805   -2.9693   -0.3049 C   0  0  0  0  0  0
   -1.9525    1.4693    0.5259 C   0  0  0  0  0  0
   -2.1959    2.5975   -0.2658 C   0  0  0  0  0  0
   -3.3425    3.3676   -0.0651 C   0  0  0  0  0  0
   -4.2571    3.0051    0.9227 C   0  0  0  0  0  0
   -4.0119    1.8815    1.7119 C   0  0  0  0  0  0
   -5.1455    1.4378    2.9289 Cl  0  0  0  0  0  0
   -2.8674    1.1081    1.5154 C   0  0  0  0  0  0
    2.4391    0.7795   -0.4118 C   0  0  0  0  0  0
    1.8648    2.0658   -0.9313 C   0  0  0  0  0  0
    3.5898    0.2553   -1.0329 C   0  0  0  0  0  0
    5.2983   -1.4668   -2.3497 H   0  0  0  0  0  0
    5.6560   -2.4775   -0.9517 H   0  0  0  0  0  0
    6.2815   -0.8173   -1.0113 H   0  0  0  0  0  0
    4.1103   -2.5064    0.8979 H   0  0  0  0  0  0
    2.0773   -1.6608    1.9708 H   0  0  0  0  0  0
   -1.5969   -0.1514   -1.5344 H   0  0  0  0  0  0
   -0.0229   -0.7412   -1.1314 H   0  0  0  0  0  0
   -1.7040   -1.6157    1.0547 H   0  0  0  0  0  0
   -3.4900   -2.8457   -0.0845 H   0  0  0  0  0  0
   -3.6983   -1.1120   -0.3506 H   0  0  0  0  0  0
   -3.0377   -2.1335   -1.6409 H   0  0  0  0  0  0
    0.2282   -2.8568    0.1027 H   0  0  0  0  0  0
   -1.2268   -3.8551    0.1581 H   0  0  0  0  0  0
   -0.6938   -3.1579   -1.3803 H   0  0  0  0  0  0
   -1.4814    2.8864   -1.0316 H   0  0  0  0  0  0
   -3.5244    4.2471   -0.6791 H   0  0  0  0  0  0
   -5.1542    3.6002    1.0760 H   0  0  0  0  0  0
   -2.7006    0.2271    2.1308 H   0  0  0  0  0  0
    0.9247    1.8860   -1.4546 H   0  0  0  0  0  0
    1.7077    2.7814   -0.1220 H   0  0  0  0  0  0
    2.5428    2.5501   -1.6405 H   0  0  0  0  0  0
    4.0403    0.7855   -1.8723 H   0  0  0  0  0  0
  1  2  1  0  0  0
  1 24  1  0  0  0
  1 25  1  0  0  0
  1 26  1  0  0  0
  2  3  2  0  0  0
  2 23  1  0  0  0
  3  4  1  0  0  0
  3 27  1  0  0  0
  4  5  2  0  0  0
  4 28  1  0  0  0
  5  6  1  0  0  0
  5 21  1  0  0  0
  6  7  2  0  0  0
  6  8  2  0  0  0
  6  9  1  0  0  0
  9 10  1  0  0  0
  9 14  1  0  0  0
 10 11  1  0  0  0
 10 29  1  0  0  0
 10 30  1  0  0  0
 11 12  1  0  0  0
 11 13  1  0  0  0
 11 31  1  0  0  0
 12 32  1  0  0  0
 12 33  1  0  0  0
 12 34  1  0  0  0
 13 35  1  0  0  0
 13 36  1  0  0  0
 13 37  1  0  0  0
 14 15  2  0  0  0
 14 20  1  0  0  0
 15 16  1  0  0  0
 15 38  1  0  0  0
 16 17  2  0  0  0
 16 39  1  0  0  0
 17 18  1  0  0  0
 17 40  1  0  0  0
 18 19  1  0  0  0
 18 20  2  0  0  0
 20 41  1  0  0  0
 21 22  1  0  0  0
 21 23  2  0  0  0
 22 42  1  0  0  0
 22 43  1  0  0  0
 22 44  1  0  0  0
 23 45  1  0  0  0
M  END
> <energy>
30.3658

> <i_ionizer_Ion_state_n>
0

> <i_ionizer_Tot_Q>
0

> <s_ionizer_Ion_centers>


> <s_ionizer_Ion_types>


> <s_ionizer_Ion_ctrs_in>


> <r_ionizer_Ionization_penalty>
0

> <r_ionizer_Ionization_penalty_charging>
0

> <r_ionizer_Ionization_penalty_neutral>
0

$$$$
ZINC001211853006
                    3D
 Schrodinger Suite 2019-4.
 48 49  0  0  1  0            999 V2000
   -3.9947   -2.3485    0.3694 C   0  0  0  0  0  0
   -2.9491   -1.2971   -0.0146 C   0  0  0  0  0  0
   -3.3487   -0.6483   -1.3409 C   0  0  0  0  0  0
   -2.7914   -0.2602    1.1093 C   0  0  0  0  0  0
   -1.4687    0.4110    1.0134 N   0  0  0  0  0  0
   -0.4204   -0.0521    1.8743 C   0  0  0  0  0  0
    0.6504   -0.7530    1.3157 C   0  0  0  0  0  0
    1.6797   -1.2251    2.1314 C   0  0  0  0  0  0
    1.6346   -1.0002    3.5077 C   0  0  0  0  0  0
    0.5635   -0.2963    4.0593 C   0  0  0  0  0  0
    0.5013   -0.0365    5.7605 Cl  0  0  0  0  0  0
   -0.4638    0.1852    3.2485 C   0  0  0  0  0  0
   -1.3866    2.0382    0.5149 S   0  0  0  0  0  0
   -2.7117    2.4584    0.1004 O   0  0  0  0  0  0
   -0.6428    2.8051    1.4898 O   0  0  0  0  0  0
   -0.4108    1.8630   -0.9826 C   0  0  0  0  0  0
    0.9535    2.5344   -0.9005 C   0  0  0  0  0  0
    1.8045    2.2481   -2.1434 C   0  0  0  0  0  0
    2.4854    0.9030   -2.0670 C   0  0  0  0  0  0
    1.9313   -0.2309   -2.6753 C   0  0  0  0  0  0
    2.5471   -1.4779   -2.5406 C   0  0  0  0  0  0
    3.7257   -1.5994   -1.8059 C   0  0  0  0  0  0
    4.2937   -0.4754   -1.2108 C   0  0  0  0  0  0
    3.6770    0.7691   -1.3402 C   0  0  0  0  0  0
   -4.1223   -3.0845   -0.4338 H   0  0  0  0  0  0
   -4.9684   -1.8875    0.5649 H   0  0  0  0  0  0
   -3.6876   -2.8933    1.2680 H   0  0  0  0  0  0
   -1.9973   -1.8204   -0.1676 H   0  0  0  0  0  0
   -2.6104    0.0873   -1.6685 H   0  0  0  0  0  0
   -3.4283   -1.4022   -2.1315 H   0  0  0  0  0  0
   -4.3182   -0.1468   -1.2599 H   0  0  0  0  0  0
   -3.6179    0.4569    1.0934 H   0  0  0  0  0  0
   -2.8700   -0.7584    2.0836 H   0  0  0  0  0  0
    0.6895   -0.9397    0.2467 H   0  0  0  0  0  0
    2.5101   -1.7689    1.6913 H   0  0  0  0  0  0
    2.4304   -1.3787    4.1433 H   0  0  0  0  0  0
   -1.2863    0.7458    3.6827 H   0  0  0  0  0  0
   -0.9990    2.3052   -1.7935 H   0  0  0  0  0  0
   -0.3244    0.7956   -1.2007 H   0  0  0  0  0  0
    1.4828    2.2207    0.0073 H   0  0  0  0  0  0
    0.8034    3.6181   -0.8193 H   0  0  0  0  0  0
    1.1983    2.3177   -3.0545 H   0  0  0  0  0  0
    2.5771    3.0218   -2.2397 H   0  0  0  0  0  0
    1.0132   -0.1553   -3.2536 H   0  0  0  0  0  0
    2.1076   -2.3560   -3.0099 H   0  0  0  0  0  0
    4.2056   -2.5680   -1.7023 H   0  0  0  0  0  0
    5.2219   -0.5631   -0.6501 H   0  0  0  0  0  0
    4.1311    1.6386   -0.8691 H   0  0  0  0  0  0
  1  2  1  0  0  0
  1 25  1  0  0  0
  1 26  1  0  0  0
  1 27  1  0  0  0
  2  3  1  0  0  0
  2  4  1  0  0  0
  2 28  1  0  0  0
  3 29  1  0  0  0
  3 30  1  0  0  0
  3 31  1  0  0  0
  4  5  1  0  0  0
  4 32  1  0  0  0
  4 33  1  0  0  0
  5  6  1  0  0  0
  5 13  1  0  0  0
  6  7  2  0  0  0
  6 12  1  0  0  0
  7  8  1  0  0  0
  7 34  1  0  0  0
  8  9  2  0  0  0
  8 35  1  0  0  0
  9 10  1  0  0  0
  9 36  1  0  0  0
 10 11  1  0  0  0
 10 12  2  0  0  0
 12 37  1  0  0  0
 13 14  2  0  0  0
 13 15  2  0  0  0
 13 16  1  0  0  0
 16 17  1  0  0  0
 16 38  1  0  0  0
 16 39  1  0  0  0
 17 18  1  0  0  0
 17 40  1  0  0  0
 17 41  1  0  0  0
 18 19  1  0  0  0
 18 42  1  0  0  0
 18 43  1  0  0  0
 19 20  2  0  0  0
 19 24  1  0  0  0
 20 21  1  0  0  0
 20 44  1  0  0  0
 21 22  2  0  0  0
 21 45  1  0  0  0
 22 23  1  0  0  0
 22 46  1  0  0  0
 23 24  2  0  0  0
 23 47  1  0  0  0
 24 48  1  0  0  0
M  END
> <energy>
1.2635

> <i_ionizer_Ion_state_n>
0

> <i_ionizer_Tot_Q>
0

> <s_ionizer_Ion_centers>


> <s_ionizer_Ion_types>


> <s_ionizer_Ion_ctrs_in>


> <r_ionizer_Ionization_penalty>
0

> <r_ionizer_Ionization_penalty_charging>
0

> <r_ionizer_Ionization_penalty_neutral>
0

$$$$
ZINC001211853007
                    3D
 Schrodinger Suite 2019-4.
 42 43  0  0  1  0            999 V2000
    4.4632   -2.0688    2.0037 C   0  0  0  0  0  0
    3.2706   -1.8968    1.1091 C   0  0  0  0  0  0
    3.4282   -1.4962   -0.2233 C   0  0  0  0  0  0
    2.3130   -1.2767   -1.0341 C   0  0  0  0  0  0
    2.5370   -0.8978   -2.2982 F   0  0  0  0  0  0
    1.0326   -1.4395   -0.5296 C   0  0  0  0  0  0
   -0.3883   -1.1397   -1.5110 S   0  0  0  0  0  0
    0.0141   -0.7038   -2.8336 O   0  0  0  0  0  0
   -1.2468   -2.2987   -1.3837 O   0  0  0  0  0  0
   -1.1477    0.2108   -0.7245 N   0  0  0  0  0  0
   -2.5310    0.5058   -1.2271 C   0  0  0  0  0  0
   -3.6337    0.1669   -0.2061 C   0  0  0  0  0  0
   -3.9646   -1.3230   -0.1449 C   0  0  0  0  0  0
   -3.3486    0.7088    1.1942 C   0  0  0  0  0  0
   -0.2914    1.3761   -0.6247 C   0  0  0  0  0  0
    0.0851    2.1160   -1.7516 C   0  0  0  0  0  0
    0.9540    3.2002   -1.6257 C   0  0  0  0  0  0
    1.4457    3.5561   -0.3708 C   0  0  0  0  0  0
    1.0567    2.8270    0.7530 C   0  0  0  0  0  0
    1.6737    3.2601    2.2992 Cl  0  0  0  0  0  0
    0.1864    1.7419    0.6348 C   0  0  0  0  0  0
    0.8674   -1.8427    0.7899 C   0  0  0  0  0  0
   -0.3512   -1.9978    1.3196 F   0  0  0  0  0  0
    1.9746   -2.0655    1.6095 C   0  0  0  0  0  0
    5.3537   -2.3388    1.4274 H   0  0  0  0  0  0
    4.6642   -1.1370    2.5424 H   0  0  0  0  0  0
    4.2906   -2.8705    2.7285 H   0  0  0  0  0  0
    4.4188   -1.3531   -0.6477 H   0  0  0  0  0  0
   -2.7216   -0.0089   -2.1771 H   0  0  0  0  0  0
   -2.6186    1.5794   -1.4514 H   0  0  0  0  0  0
   -4.5455    0.6641   -0.5671 H   0  0  0  0  0  0
   -3.1663   -1.9015    0.3280 H   0  0  0  0  0  0
   -4.1473   -1.7280   -1.1461 H   0  0  0  0  0  0
   -4.8791   -1.4867    0.4369 H   0  0  0  0  0  0
   -2.4671    0.2367    1.6393 H   0  0  0  0  0  0
   -3.1846    1.7909    1.1676 H   0  0  0  0  0  0
   -4.1948    0.5194    1.8644 H   0  0  0  0  0  0
   -0.2830    1.8453   -2.7396 H   0  0  0  0  0  0
    1.2541    3.7569   -2.5104 H   0  0  0  0  0  0
    2.1279    4.3973   -0.2774 H   0  0  0  0  0  0
   -0.1106    1.1841    1.5178 H   0  0  0  0  0  0
    1.8100   -2.3724    2.6403 H   0  0  0  0  0  0
  1  2  1  0  0  0
  1 25  1  0  0  0
  1 26  1  0  0  0
  1 27  1  0  0  0
  2  3  2  0  0  0
  2 24  1  0  0  0
  3  4  1  0  0  0
  3 28  1  0  0  0
  4  5  1  0  0  0
  4  6  2  0  0  0
  6  7  1  0  0  0
  6 22  1  0  0  0
  7  8  2  0  0  0
  7  9  2  0  0  0
  7 10  1  0  0  0
 10 11  1  0  0  0
 10 15  1  0  0  0
 11 12  1  0  0  0
 11 29  1  0  0  0
 11 30  1  0  0  0
 12 13  1  0  0  0
 12 14  1  0  0  0
 12 31  1  0  0  0
 13 32  1  0  0  0
 13 33  1  0  0  0
 13 34  1  0  0  0
 14 35  1  0  0  0
 14 36  1  0  0  0
 14 37  1  0  0  0
 15 16  2  0  0  0
 15 21  1  0  0  0
 16 17  1  0  0  0
 16 38  1  0  0  0
 17 18  2  0  0  0
 17 39  1  0  0  0
 18 19  1  0  0  0
 18 40  1  0  0  0
 19 20  1  0  0  0
 19 21  2  0  0  0
 21 41  1  0  0  0
 22 23  1  0  0  0
 22 24  2  0  0  0
 24 42  1  0  0  0
M  END
> <energy>
-29.7541

> <i_ionizer_Ion_state_n>
0

> <i_ionizer_Tot_Q>
0

> <s_ionizer_Ion_centers>


> <s_ionizer_Ion_types>


> <s_ionizer_Ion_ctrs_in>


> <r_ionizer_Ionization_penalty>
0

> <r_ionizer_Ionization_penalty_charging>
0

> <r_ionizer_Ionization_penalty_neutral>
0

$$$$
ZINC001211853042
                    3D
 Schrodinger Suite 2019-4.
 45 46  0  0  1  0            999 V2000
   -3.7359   -0.0572    1.7370 C   0  0  0  0  0  0
   -3.3787    1.2252    0.9888 C   0  0  0  0  0  0
   -2.3567    2.0459    1.7748 C   0  0  0  0  0  0
   -2.9543    0.9708   -0.4673 C   0  0  0  0  0  0
   -1.5138    0.5519   -0.5855 N   0  0  0  0  0  0
   -1.2937   -0.8742   -0.6662 C   0  0  0  0  0  0
   -1.6914   -1.6344   -1.7691 C   0  0  0  0  0  0
   -1.4174   -3.0045   -1.8155 C   0  0  0  0  0  0
   -0.7622   -3.6224   -0.7482 C   0  0  0  0  0  0
   -0.3781   -2.8644    0.3549 C   0  0  0  0  0  0
    0.4461   -3.6187    1.6623 Cl  0  0  0  0  0  0
   -0.6464   -1.4970    0.4037 C   0  0  0  0  0  0
   -0.6573    1.4982   -1.7456 S   0  0  0  0  0  0
   -1.0780    1.0846   -3.0693 O   0  0  0  0  0  0
   -0.7812    2.8875   -1.3502 O   0  0  0  0  0  0
    1.0478    1.0166   -1.5189 C   0  0  0  0  0  0
    1.5967    1.4402   -0.1674 C   0  0  0  0  0  0
    2.9203    0.7708    0.1139 C   0  0  0  0  0  0
    4.0540    1.0706   -0.6589 C   0  0  0  0  0  0
    5.2716    0.4263   -0.4180 C   0  0  0  0  0  0
    5.3694   -0.5178    0.6016 C   0  0  0  0  0  0
    4.2512   -0.8056    1.3727 C   0  0  0  0  0  0
    4.3448   -1.7136    2.3533 F   0  0  0  0  0  0
    3.0334   -0.1748    1.1401 C   0  0  0  0  0  0
   -4.1962    0.1843    2.7020 H   0  0  0  0  0  0
   -2.8589   -0.6753    1.9409 H   0  0  0  0  0  0
   -4.4571   -0.6540    1.1687 H   0  0  0  0  0  0
   -4.3028    1.8147    0.9394 H   0  0  0  0  0  0
   -1.4217    1.4944    1.9225 H   0  0  0  0  0  0
   -2.7484    2.3016    2.7653 H   0  0  0  0  0  0
   -2.1282    2.9804    1.2520 H   0  0  0  0  0  0
   -3.1124    1.9081   -1.0169 H   0  0  0  0  0  0
   -3.6158    0.2357   -0.9427 H   0  0  0  0  0  0
   -2.2036   -1.1692   -2.6074 H   0  0  0  0  0  0
   -1.7111   -3.5853   -2.6863 H   0  0  0  0  0  0
   -0.5527   -4.6886   -0.7892 H   0  0  0  0  0  0
   -0.3530   -0.9207    1.2763 H   0  0  0  0  0  0
    1.1210   -0.0612   -1.6916 H   0  0  0  0  0  0
    1.6049    1.5055   -2.3269 H   0  0  0  0  0  0
    0.8869    1.2073    0.6345 H   0  0  0  0  0  0
    1.7295    2.5282   -0.1331 H   0  0  0  0  0  0
    3.9978    1.8020   -1.4626 H   0  0  0  0  0  0
    6.1400    0.6569   -1.0301 H   0  0  0  0  0  0
    6.3061   -1.0307    0.7971 H   0  0  0  0  0  0
    2.1856   -0.4381    1.7650 H   0  0  0  0  0  0
  1  2  1  0  0  0
  1 25  1  0  0  0
  1 26  1  0  0  0
  1 27  1  0  0  0
  2  3  1  0  0  0
  2  4  1  0  0  0
  2 28  1  0  0  0
  3 29  1  0  0  0
  3 30  1  0  0  0
  3 31  1  0  0  0
  4  5  1  0  0  0
  4 32  1  0  0  0
  4 33  1  0  0  0
  5  6  1  0  0  0
  5 13  1  0  0  0
  6  7  2  0  0  0
  6 12  1  0  0  0
  7  8  1  0  0  0
  7 34  1  0  0  0
  8  9  2  0  0  0
  8 35  1  0  0  0
  9 10  1  0  0  0
  9 36  1  0  0  0
 10 11  1  0  0  0
 10 12  2  0  0  0
 12 37  1  0  0  0
 13 14  2  0  0  0
 13 15  2  0  0  0
 13 16  1  0  0  0
 16 17  1  0  0  0
 16 38  1  0  0  0
 16 39  1  0  0  0
 17 18  1  0  0  0
 17 40  1  0  0  0
 17 41  1  0  0  0
 18 19  2  0  0  0
 18 24  1  0  0  0
 19 20  1  0  0  0
 19 42  1  0  0  0
 20 21  2  0  0  0
 20 43  1  0  0  0
 21 22  1  0  0  0
 21 44  1  0  0  0
 22 23  1  0  0  0
 22 24  2  0  0  0
 24 45  1  0  0  0
M  END
> <energy>
-8.93531

> <i_ionizer_Ion_state_n>
0

> <i_ionizer_Tot_Q>
0

> <s_ionizer_Ion_centers>


> <s_ionizer_Ion_types>


> <s_ionizer_Ion_ctrs_in>


> <r_ionizer_Ionization_penalty>
0

> <r_ionizer_Ionization_penalty_charging>
0

> <r_ionizer_Ionization_penalty_neutral>
0

$$$$
ZINC001211853325
                    3D
 Schrodinger Suite 2019-4.
 48 50  0  0  1  0            999 V2000
    2.2575   -1.0441    1.1145 C   0  0  0  0  0  0
    3.5009   -0.2880    1.0265 N   0  0  0  0  0  0
    4.4068   -0.3996    2.1585 C   0  0  0  0  0  0
    3.7196    0.7331    0.1021 C   0  0  0  0  0  0
    4.6841    1.4959    0.1197 O   0  0  0  0  0  0
    2.6984    0.9746   -0.9243 C   0  0  0  0  0  0
    1.7173    1.9424   -0.6864 C   0  0  0  0  0  0
    0.7050    2.1425   -1.6271 C   0  0  0  0  0  0
   -0.3497    3.0439   -1.3751 N   0  0  0  0  0  0
   -1.5343    2.7268   -0.6579 C   0  0  0  0  0  0
   -2.4883    3.7394   -0.4856 C   0  0  0  0  0  0
   -3.6733    3.4928    0.2089 C   0  0  0  0  0  0
   -3.9206    2.2251    0.7318 C   0  0  0  0  0  0
   -3.0013    1.2006    0.5235 C   0  0  0  0  0  0
   -3.2742   -0.0166    1.0883 O   0  0  0  0  0  0
   -3.3146   -1.0856    0.1308 C   0  0  0  0  0  0
   -2.2129   -2.0953    0.3713 C   0  0  0  0  0  0
   -2.0415   -2.6833    1.6338 C   0  0  0  0  0  0
   -1.0772   -3.6762    1.8317 C   0  0  0  0  0  0
   -0.2716   -4.0892    0.7720 C   0  0  0  0  0  0
   -0.4223   -3.5032   -0.4833 C   0  0  0  0  0  0
   -1.3863   -2.5112   -0.6831 C   0  0  0  0  0  0
   -1.8136    1.4442   -0.1685 C   0  0  0  0  0  0
    0.6851    1.3683   -2.7966 C   0  0  0  0  0  0
    1.6930    0.4344   -3.0485 C   0  0  0  0  0  0
    2.6992    0.2421   -2.1080 C   0  0  0  0  0  0
    3.6431   -0.6787   -2.3467 F   0  0  0  0  0  0
    1.5624   -0.5058    1.7637 H   0  0  0  0  0  0
    1.7969   -1.1725    0.1356 H   0  0  0  0  0  0
    2.4610   -2.0339    1.5295 H   0  0  0  0  0  0
    5.3559    0.1082    1.9689 H   0  0  0  0  0  0
    4.6063   -1.4571    2.3555 H   0  0  0  0  0  0
    3.9353    0.0525    3.0367 H   0  0  0  0  0  0
    1.7344    2.5080    0.2408 H   0  0  0  0  0  0
    0.0186    3.9137   -0.9887 H   0  0  0  0  0  0
   -2.3126    4.7304   -0.8963 H   0  0  0  0  0  0
   -4.4025    4.2875    0.3383 H   0  0  0  0  0  0
   -4.8360    2.0334    1.2840 H   0  0  0  0  0  0
   -3.3021   -0.7175   -0.9033 H   0  0  0  0  0  0
   -4.2728   -1.6046    0.2593 H   0  0  0  0  0  0
   -2.6694   -2.3762    2.4685 H   0  0  0  0  0  0
   -0.9649   -4.1361    2.8113 H   0  0  0  0  0  0
    0.4729   -4.8670    0.9263 H   0  0  0  0  0  0
    0.2039   -3.8286   -1.3109 H   0  0  0  0  0  0
   -1.4935   -2.0726   -1.6727 H   0  0  0  0  0  0
   -1.0934    0.6427   -0.2866 H   0  0  0  0  0  0
   -0.1164    1.5104   -3.5189 H   0  0  0  0  0  0
    1.6878   -0.1501   -3.9632 H   0  0  0  0  0  0
  1  2  1  0  0  0
  1 28  1  0  0  0
  1 29  1  0  0  0
  1 30  1  0  0  0
  2  3  1  0  0  0
  2  4  1  0  0  0
  3 31  1  0  0  0
  3 32  1  0  0  0
  3 33  1  0  0  0
  4  5  2  0  0  0
  4  6  1  0  0  0
  6  7  2  0  0  0
  6 26  1  0  0  0
  7  8  1  0  0  0
  7 34  1  0  0  0
  8  9  1  0  0  0
  8 24  2  0  0  0
  9 10  1  0  0  0
  9 35  1  0  0  0
 10 11  2  0  0  0
 10 23  1  0  0  0
 11 12  1  0  0  0
 11 36  1  0  0  0
 12 13  2  0  0  0
 12 37  1  0  0  0
 13 14  1  0  0  0
 13 38  1  0  0  0
 14 15  1  0  0  0
 14 23  2  0  0  0
 15 16  1  0  0  0
 16 17  1  0  0  0
 16 39  1  0  0  0
 16 40  1  0  0  0
 17 18  2  0  0  0
 17 22  1  0  0  0
 18 19  1  0  0  0
 18 41  1  0  0  0
 19 20  2  0  0  0
 19 42  1  0  0  0
 20 21  1  0  0  0
 20 43  1  0  0  0
 21 22  2  0  0  0
 21 44  1  0  0  0
 22 45  1  0  0  0
 23 46  1  0  0  0
 24 25  1  0  0  0
 24 47  1  0  0  0
 25 26  2  0  0  0
 25 48  1  0  0  0
 26 27  1  0  0  0
M  END
> <energy>
57.4112

> <i_ionizer_Ion_state_n>
0

> <i_ionizer_Tot_Q>
0

> <s_ionizer_Ion_centers>


> <s_ionizer_Ion_types>


> <s_ionizer_Ion_ctrs_in>


> <r_ionizer_Ionization_penalty>
0

> <r_ionizer_Ionization_penalty_charging>
0

> <r_ionizer_Ionization_penalty_neutral>
0

$$$$
ZINC001211853329
                    3D
 Schrodinger Suite 2019-4.
 34 35  0  0  1  0            999 V2000
   -3.0222   -0.6362   -1.4410 C   0  0  0  0  0  0
   -3.7474   -0.1409   -0.2831 N   0  0  0  0  0  0
   -5.0502   -0.7437   -0.0426 C   0  0  0  0  0  0
   -3.1312    0.5583    0.7596 C   0  0  0  0  0  0
   -3.6184    0.6978    1.8795 O   0  0  0  0  0  0
   -1.7736    1.0847    0.5510 C   0  0  0  0  0  0
   -0.7119    0.4337    1.1876 C   0  0  0  0  0  0
    0.6007    0.8338    0.9322 C   0  0  0  0  0  0
    1.6803    0.1251    1.5112 N   0  0  0  0  0  0
    2.7602   -0.4022    0.7569 C   0  0  0  0  0  0
    2.5044   -1.2594   -0.3279 C   0  0  0  0  0  0
    3.5603   -1.7967   -1.0668 C   0  0  0  0  0  0
    4.8741   -1.4873   -0.7215 C   0  0  0  0  0  0
    6.3016   -2.1523   -1.7679 Br  0  0  0  0  0  0
    5.1475   -0.6776    0.3786 C   0  0  0  0  0  0
    4.0933   -0.1547    1.1307 C   0  0  0  0  0  0
    4.4771    0.8353    2.4997 Cl  0  0  0  0  0  0
    0.8275    1.9189    0.0615 C   0  0  0  0  0  0
   -0.2398    2.6050   -0.5299 C   0  0  0  0  0  0
   -1.5406    2.1840   -0.2759 C   0  0  0  0  0  0
   -2.5581    2.8353   -0.8555 F   0  0  0  0  0  0
   -3.6606   -0.5632   -2.3288 H   0  0  0  0  0  0
   -2.7494   -1.6816   -1.2525 H   0  0  0  0  0  0
   -2.1009   -0.0776   -1.6321 H   0  0  0  0  0  0
   -5.6287   -0.7487   -0.9730 H   0  0  0  0  0  0
   -4.9064   -1.7727    0.3032 H   0  0  0  0  0  0
   -5.6102   -0.1895    0.7174 H   0  0  0  0  0  0
   -0.9256   -0.3968    1.8458 H   0  0  0  0  0  0
    1.3606   -0.5683    2.1875 H   0  0  0  0  0  0
    1.4814   -1.5018   -0.6141 H   0  0  0  0  0  0
    3.3455   -2.4341   -1.9182 H   0  0  0  0  0  0
    6.1734   -0.4319    0.6450 H   0  0  0  0  0  0
    1.8489    2.2518   -0.1338 H   0  0  0  0  0  0
   -0.0616    3.4535   -1.1831 H   0  0  0  0  0  0
  1  2  1  0  0  0
  1 22  1  0  0  0
  1 23  1  0  0  0
  1 24  1  0  0  0
  2  3  1  0  0  0
  2  4  1  0  0  0
  3 25  1  0  0  0
  3 26  1  0  0  0
  3 27  1  0  0  0
  4  5  2  0  0  0
  4  6  1  0  0  0
  6  7  2  0  0  0
  6 20  1  0  0  0
  7  8  1  0  0  0
  7 28  1  0  0  0
  8  9  1  0  0  0
  8 18  2  0  0  0
  9 10  1  0  0  0
  9 29  1  0  0  0
 10 11  2  0  0  0
 10 16  1  0  0  0
 11 12  1  0  0  0
 11 30  1  0  0  0
 12 13  2  0  0  0
 12 31  1  0  0  0
 13 14  1  0  0  0
 13 15  1  0  0  0
 15 16  2  0  0  0
 15 32  1  0  0  0
 16 17  1  0  0  0
 18 19  1  0  0  0
 18 33  1  0  0  0
 19 20  2  0  0  0
 19 34  1  0  0  0
 20 21  1  0  0  0
M  END
> <energy>
41.9341

> <i_ionizer_Ion_state_n>
0

> <i_ionizer_Tot_Q>
0

> <s_ionizer_Ion_centers>


> <s_ionizer_Ion_types>


> <s_ionizer_Ion_ctrs_in>


> <r_ionizer_Ionization_penalty>
0

> <r_ionizer_Ionization_penalty_charging>
0

> <r_ionizer_Ionization_penalty_neutral>
0

$$$$
ZINC001211853372
                    3D
 Schrodinger Suite 2019-4.
 38 39  0  0  1  0            999 V2000
   -2.3792   -1.8558   -1.1488 C   0  0  0  0  0  0
   -3.2902   -0.7680   -0.8345 N   0  0  0  0  0  0
   -4.2337   -0.3999   -1.8748 C   0  0  0  0  0  0
   -3.0750    0.1365    0.2049 C   0  0  0  0  0  0
   -3.7243    1.1632    0.3766 O   0  0  0  0  0  0
   -1.9275   -0.0693    1.0912 C   0  0  0  0  0  0
   -0.7982    0.7294    0.8836 C   0  0  0  0  0  0
    0.3086    0.6099    1.7338 C   0  0  0  0  0  0
    1.4562    1.4403    1.5903 N   0  0  0  0  0  0
    2.1194    1.5798    0.3310 C   0  0  0  0  0  0
    1.7192    2.5936   -0.5550 C   0  0  0  0  0  0
    2.2862    2.7002   -1.8218 C   0  0  0  0  0  0
    3.2460    1.7799   -2.2333 C   0  0  0  0  0  0
    3.6568    0.7652   -1.3655 C   0  0  0  0  0  0
    3.1043    0.6551   -0.0803 C   0  0  0  0  0  0
    3.7789   -0.5650    1.0508 S   0  0  0  0  0  0
    3.0678   -2.0486    0.3578 C   0  0  0  0  0  0
    3.3018   -3.1187    1.1624 F   0  0  0  0  0  0
    3.6069   -2.3437   -0.8529 F   0  0  0  0  0  0
    1.7252   -1.9701    0.1912 F   0  0  0  0  0  0
    0.2434   -0.2822    2.8145 C   0  0  0  0  0  0
   -0.8894   -1.0783    3.0153 C   0  0  0  0  0  0
   -1.9747   -0.9678    2.1496 C   0  0  0  0  0  0
   -3.0486   -1.7437    2.3484 F   0  0  0  0  0  0
   -2.8843   -2.5763   -1.7979 H   0  0  0  0  0  0
   -1.5030   -1.4537   -1.6627 H   0  0  0  0  0  0
   -2.0599   -2.3668   -0.2403 H   0  0  0  0  0  0
   -4.9477    0.3508   -1.5334 H   0  0  0  0  0  0
   -3.6772   -0.0016   -2.7278 H   0  0  0  0  0  0
   -4.7754   -1.2965   -2.1867 H   0  0  0  0  0  0
   -0.8017    1.4448    0.0673 H   0  0  0  0  0  0
    1.1654    2.3730    1.8995 H   0  0  0  0  0  0
    0.9522    3.3036   -0.2605 H   0  0  0  0  0  0
    1.9672    3.4916   -2.4946 H   0  0  0  0  0  0
    3.6894    1.8619   -3.2239 H   0  0  0  0  0  0
    4.4295    0.0799   -1.7029 H   0  0  0  0  0  0
    1.0936   -0.3701    3.4883 H   0  0  0  0  0  0
   -0.9280   -1.7826    3.8410 H   0  0  0  0  0  0
  1  2  1  0  0  0
  1 25  1  0  0  0
  1 26  1  0  0  0
  1 27  1  0  0  0
  2  3  1  0  0  0
  2  4  1  0  0  0
  3 28  1  0  0  0
  3 29  1  0  0  0
  3 30  1  0  0  0
  4  5  2  0  0  0
  4  6  1  0  0  0
  6  7  2  0  0  0
  6 23  1  0  0  0
  7  8  1  0  0  0
  7 31  1  0  0  0
  8  9  1  0  0  0
  8 21  2  0  0  0
  9 10  1  0  0  0
  9 32  1  0  0  0
 10 11  2  0  0  0
 10 15  1  0  0  0
 11 12  1  0  0  0
 11 33  1  0  0  0
 12 13  2  0  0  0
 12 34  1  0  0  0
 13 14  1  0  0  0
 13 35  1  0  0  0
 14 15  2  0  0  0
 14 36  1  0  0  0
 15 16  1  0  0  0
 16 17  1  0  0  0
 17 18  1  0  0  0
 17 19  1  0  0  0
 17 20  1  0  0  0
 21 22  1  0  0  0
 21 37  1  0  0  0
 22 23  2  0  0  0
 22 38  1  0  0  0
 23 24  1  0  0  0
M  END
> <energy>
41.1692

> <i_ionizer_Ion_state_n>
0

> <i_ionizer_Tot_Q>
0

> <s_ionizer_Ion_centers>


> <s_ionizer_Ion_types>


> <s_ionizer_Ion_ctrs_in>


> <r_ionizer_Ionization_penalty>
0

> <r_ionizer_Ionization_penalty_charging>
0

> <r_ionizer_Ionization_penalty_neutral>
0

$$$$
ZINC001211853382
                    3D
 Schrodinger Suite 2019-4.
 40 41  0  0  1  0            999 V2000
    1.6134    2.3389    3.3572 C   0  0  0  0  0  0
    1.3068    2.3707    1.8854 C   0  0  0  0  0  0
   -0.0254    2.2100    1.4699 C   0  0  0  0  0  0
   -0.3546    2.1730    0.1112 C   0  0  0  0  0  0
   -1.6698    1.8702   -0.3139 N   0  0  0  0  0  0
   -2.1841    0.5438   -0.3865 C   0  0  0  0  0  0
   -3.5173    0.3595   -0.7790 C   0  0  0  0  0  0
   -4.0681   -0.9225   -0.8649 C   0  0  0  0  0  0
   -3.2853   -2.0331   -0.5664 C   0  0  0  0  0  0
   -3.8402   -3.2504   -0.6485 F   0  0  0  0  0  0
   -1.9486   -1.8743   -0.2177 C   0  0  0  0  0  0
   -1.1258   -3.0468    0.1452 C   0  0  0  0  0  0
   -1.5364   -3.7835    1.0389 O   0  0  0  0  0  0
    0.1101   -3.2110   -0.4805 N   0  0  0  0  0  0
    0.4844   -2.5911   -1.7431 C   0  0  0  0  0  0
    1.0515   -4.1830    0.0482 C   0  0  0  0  0  0
   -1.3953   -0.5875   -0.1345 C   0  0  0  0  0  0
    0.6553    2.3139   -0.8432 C   0  0  0  0  0  0
    1.9935    2.5073   -0.4610 C   0  0  0  0  0  0
    3.0278    2.6637   -1.5405 C   0  0  0  0  0  0
    2.3159    2.5167    0.9103 C   0  0  0  0  0  0
    4.1415    2.6873    1.4539 Br  0  0  0  0  0  0
    2.1459    3.2443    3.6612 H   0  0  0  0  0  0
    2.2116    1.4562    3.5967 H   0  0  0  0  0  0
    0.7002    2.2839    3.9605 H   0  0  0  0  0  0
   -0.8135    2.0680    2.2081 H   0  0  0  0  0  0
   -2.3381    2.4292    0.2183 H   0  0  0  0  0  0
   -4.1368    1.2211   -1.0215 H   0  0  0  0  0  0
   -5.1051   -1.0611   -1.1559 H   0  0  0  0  0  0
    1.2769   -1.8652   -1.5518 H   0  0  0  0  0  0
    0.8606   -3.3671   -2.4145 H   0  0  0  0  0  0
   -0.3563   -2.1021   -2.2353 H   0  0  0  0  0  0
    2.0414   -3.7164    0.0943 H   0  0  0  0  0  0
    1.0868   -5.0391   -0.6326 H   0  0  0  0  0  0
    0.7764   -4.5287    1.0483 H   0  0  0  0  0  0
   -0.3550   -0.4810    0.1628 H   0  0  0  0  0  0
    0.3896    2.2650   -1.8977 H   0  0  0  0  0  0
    3.7002    1.8015   -1.5581 H   0  0  0  0  0  0
    3.6038    3.5821   -1.3933 H   0  0  0  0  0  0
    2.5621    2.7373   -2.5299 H   0  0  0  0  0  0
  1  2  1  0  0  0
  1 23  1  0  0  0
  1 24  1  0  0  0
  1 25  1  0  0  0
  2  3  2  0  0  0
  2 21  1  0  0  0
  3  4  1  0  0  0
  3 26  1  0  0  0
  4  5  1  0  0  0
  4 18  2  0  0  0
  5  6  1  0  0  0
  5 27  1  0  0  0
  6  7  2  0  0  0
  6 17  1  0  0  0
  7  8  1  0  0  0
  7 28  1  0  0  0
  8  9  2  0  0  0
  8 29  1  0  0  0
  9 10  1  0  0  0
  9 11  1  0  0  0
 11 12  1  0  0  0
 11 17  2  0  0  0
 12 13  2  0  0  0
 12 14  1  0  0  0
 14 15  1  0  0  0
 14 16  1  0  0  0
 15 30  1  0  0  0
 15 31  1  0  0  0
 15 32  1  0  0  0
 16 33  1  0  0  0
 16 34  1  0  0  0
 16 35  1  0  0  0
 17 36  1  0  0  0
 18 19  1  0  0  0
 18 37  1  0  0  0
 19 20  1  0  0  0
 19 21  2  0  0  0
 20 38  1  0  0  0
 20 39  1  0  0  0
 20 40  1  0  0  0
 21 22  1  0  0  0
M  END
> <energy>
37.228

> <i_ionizer_Ion_state_n>
0

> <i_ionizer_Tot_Q>
0

> <s_ionizer_Ion_centers>


> <s_ionizer_Ion_types>


> <s_ionizer_Ion_ctrs_in>


> <r_ionizer_Ionization_penalty>
0

> <r_ionizer_Ionization_penalty_charging>
0

> <r_ionizer_Ionization_penalty_neutral>
0

$$$$
ZINC001211853395
                    3D
 Schrodinger Suite 2019-4.
 48 50  0  0  1  0            999 V2000
   -4.3824    0.5244    0.2761 C   0  0  0  0  0  0
   -3.2680    1.0727   -0.4790 N   0  0  0  0  0  0
   -2.8148    0.2812   -1.6135 C   0  0  0  0  0  0
   -2.8534    2.3740   -0.1950 C   0  0  0  0  0  0
   -3.3912    3.0922    0.6468 O   0  0  0  0  0  0
   -1.6746    2.9205   -0.8883 C   0  0  0  0  0  0
   -0.4250    2.3117   -0.7212 C   0  0  0  0  0  0
    0.7188    2.8634   -1.3145 C   0  0  0  0  0  0
    1.9857    2.2554   -1.2117 N   0  0  0  0  0  0
    2.2748    0.8933   -1.0042 C   0  0  0  0  0  0
    1.5363   -0.1110   -1.6456 C   0  0  0  0  0  0
    1.7829   -1.4616   -1.3954 C   0  0  0  0  0  0
    2.7634   -1.8220   -0.4774 C   0  0  0  0  0  0
    3.0392   -3.1183   -0.1369 O   0  0  0  0  0  0
    1.8880   -3.8938    0.2401 C   0  0  0  0  0  0
    1.2329   -3.3840    1.5052 C   0  0  0  0  0  0
    1.8914   -3.4998    2.7363 C   0  0  0  0  0  0
    1.3279   -2.9595    3.8927 C   0  0  0  0  0  0
    0.1034   -2.2959    3.8296 C   0  0  0  0  0  0
   -0.5637   -2.1803    2.6123 C   0  0  0  0  0  0
   -0.0052   -2.7266    1.4562 C   0  0  0  0  0  0
    3.5380   -0.8387    0.1353 C   0  0  0  0  0  0
    3.2903    0.5125   -0.1216 C   0  0  0  0  0  0
    0.5922    4.0479   -2.0534 C   0  0  0  0  0  0
   -0.6567    4.6549   -2.2214 C   0  0  0  0  0  0
   -1.7860    4.0882   -1.6362 C   0  0  0  0  0  0
   -2.9731    4.6798   -1.8258 F   0  0  0  0  0  0
   -4.5938    1.1051    1.1779 H   0  0  0  0  0  0
   -4.1483   -0.5033    0.5675 H   0  0  0  0  0  0
   -5.2723    0.5274   -0.3599 H   0  0  0  0  0  0
   -2.3108   -0.6123   -1.2339 H   0  0  0  0  0  0
   -2.1378    0.8308   -2.2687 H   0  0  0  0  0  0
   -3.6862   -0.0175   -2.2044 H   0  0  0  0  0  0
   -0.3463    1.4269   -0.0953 H   0  0  0  0  0  0
    2.7007    2.8895   -0.8682 H   0  0  0  0  0  0
    0.7680    0.1609   -2.3633 H   0  0  0  0  0  0
    1.2007   -2.2077   -1.9226 H   0  0  0  0  0  0
    2.2404   -4.9173    0.4218 H   0  0  0  0  0  0
    1.1764   -3.9816   -0.5882 H   0  0  0  0  0  0
    2.8569   -3.9986    2.7943 H   0  0  0  0  0  0
    1.8499   -3.0457    4.8413 H   0  0  0  0  0  0
   -0.3250   -1.8598    4.7280 H   0  0  0  0  0  0
   -1.5125   -1.6527    2.5616 H   0  0  0  0  0  0
   -0.5324   -2.6141    0.5122 H   0  0  0  0  0  0
    4.3091   -1.1250    0.8444 H   0  0  0  0  0  0
    3.8830    1.2596    0.3982 H   0  0  0  0  0  0
    1.4661    4.4913   -2.5246 H   0  0  0  0  0  0
   -0.7568    5.5636   -2.8075 H   0  0  0  0  0  0
  1  2  1  0  0  0
  1 28  1  0  0  0
  1 29  1  0  0  0
  1 30  1  0  0  0
  2  3  1  0  0  0
  2  4  1  0  0  0
  3 31  1  0  0  0
  3 32  1  0  0  0
  3 33  1  0  0  0
  4  5  2  0  0  0
  4  6  1  0  0  0
  6  7  2  0  0  0
  6 26  1  0  0  0
  7  8  1  0  0  0
  7 34  1  0  0  0
  8  9  1  0  0  0
  8 24  2  0  0  0
  9 10  1  0  0  0
  9 35  1  0  0  0
 10 11  2  0  0  0
 10 23  1  0  0  0
 11 12  1  0  0  0
 11 36  1  0  0  0
 12 13  2  0  0  0
 12 37  1  0  0  0
 13 14  1  0  0  0
 13 22  1  0  0  0
 14 15  1  0  0  0
 15 16  1  0  0  0
 15 38  1  0  0  0
 15 39  1  0  0  0
 16 17  2  0  0  0
 16 21  1  0  0  0
 17 18  1  0  0  0
 17 40  1  0  0  0
 18 19  2  0  0  0
 18 41  1  0  0  0
 19 20  1  0  0  0
 19 42  1  0  0  0
 20 21  2  0  0  0
 20 43  1  0  0  0
 21 44  1  0  0  0
 22 23  2  0  0  0
 22 45  1  0  0  0
 23 46  1  0  0  0
 24 25  1  0  0  0
 24 47  1  0  0  0
 25 26  2  0  0  0
 25 48  1  0  0  0
 26 27  1  0  0  0
M  END
> <energy>
58.3847

> <i_ionizer_Ion_state_n>
0

> <i_ionizer_Tot_Q>
0

> <s_ionizer_Ion_centers>


> <s_ionizer_Ion_types>


> <s_ionizer_Ion_ctrs_in>


> <r_ionizer_Ionization_penalty>
0

> <r_ionizer_Ionization_penalty_charging>
0

> <r_ionizer_Ionization_penalty_neutral>
0

$$$$
ZINC001211853477
                    3D
 Schrodinger Suite 2019-4.
 34 35  0  0  1  0            999 V2000
    1.3870   -3.9177   -0.8089 C   0  0  0  0  0  0
    1.3762   -2.6215   -0.1551 N   0  0  0  0  0  0
    0.3937   -2.4405    0.9060 C   0  0  0  0  0  0
    2.2592   -1.6338   -0.5882 C   0  0  0  0  0  0
    3.1290   -1.8142   -1.4352 O   0  0  0  0  0  0
    2.0999   -0.2696   -0.0632 C   0  0  0  0  0  0
    0.9476    0.4565   -0.3902 C   0  0  0  0  0  0
    0.8045    1.7735    0.0575 C   0  0  0  0  0  0
   -0.3260    2.5581   -0.2985 N   0  0  0  0  0  0
   -1.6571    2.0372   -0.2366 C   0  0  0  0  0  0
   -2.3549    1.7121   -1.4178 C   0  0  0  0  0  0
   -1.6252    1.9427   -2.9683 Cl  0  0  0  0  0  0
   -3.6418    1.1690   -1.3738 C   0  0  0  0  0  0
   -4.2603    0.9464   -0.1474 C   0  0  0  0  0  0
   -3.5882    1.2452    1.0353 C   0  0  0  0  0  0
   -2.2938    1.7796    0.9961 C   0  0  0  0  0  0
   -1.4817    2.1744    2.6704 Br  0  0  0  0  0  0
    1.8548    2.3727    0.7630 C   0  0  0  0  0  0
    2.9999    1.6414    1.0968 C   0  0  0  0  0  0
    3.1175    0.3192    0.6801 C   0  0  0  0  0  0
    4.2174   -0.3686    1.0104 F   0  0  0  0  0  0
    2.1508   -3.9875   -1.5870 H   0  0  0  0  0  0
    0.4039   -4.0885   -1.2631 H   0  0  0  0  0  0
    1.5781   -4.6915   -0.0569 H   0  0  0  0  0  0
   -0.5898   -2.3124    0.4486 H   0  0  0  0  0  0
    0.6184   -1.5788    1.5376 H   0  0  0  0  0  0
    0.3927   -3.3303    1.5402 H   0  0  0  0  0  0
    0.1859   -0.0103   -1.0085 H   0  0  0  0  0  0
   -0.1627    2.8869   -1.2546 H   0  0  0  0  0  0
   -4.1647    0.9225   -2.2929 H   0  0  0  0  0  0
   -5.2703    0.5441   -0.1134 H   0  0  0  0  0  0
   -4.0814    1.0702    1.9889 H   0  0  0  0  0  0
    1.7767    3.4149    1.0655 H   0  0  0  0  0  0
    3.8049    2.0987    1.6634 H   0  0  0  0  0  0
  1  2  1  0  0  0
  1 22  1  0  0  0
  1 23  1  0  0  0
  1 24  1  0  0  0
  2  3  1  0  0  0
  2  4  1  0  0  0
  3 25  1  0  0  0
  3 26  1  0  0  0
  3 27  1  0  0  0
  4  5  2  0  0  0
  4  6  1  0  0  0
  6  7  2  0  0  0
  6 20  1  0  0  0
  7  8  1  0  0  0
  7 28  1  0  0  0
  8  9  1  0  0  0
  8 18  2  0  0  0
  9 10  1  0  0  0
  9 29  1  0  0  0
 10 11  2  0  0  0
 10 16  1  0  0  0
 11 12  1  0  0  0
 11 13  1  0  0  0
 13 14  2  0  0  0
 13 30  1  0  0  0
 14 15  1  0  0  0
 14 31  1  0  0  0
 15 16  2  0  0  0
 15 32  1  0  0  0
 16 17  1  0  0  0
 18 19  1  0  0  0
 18 33  1  0  0  0
 19 20  2  0  0  0
 19 34  1  0  0  0
 20 21  1  0  0  0
M  END
> <energy>
56.9149

> <i_ionizer_Ion_state_n>
0

> <i_ionizer_Tot_Q>
0

> <s_ionizer_Ion_centers>


> <s_ionizer_Ion_types>


> <s_ionizer_Ion_ctrs_in>


> <r_ionizer_Ionization_penalty>
0

> <r_ionizer_Ionization_penalty_charging>
0

> <r_ionizer_Ionization_penalty_neutral>
0

$$$$
ZINC001211853479
                    3D
 Schrodinger Suite 2019-4.
 41 42  0  0  1  0            999 V2000
    3.6074   -1.2138    0.8569 C   0  0  0  0  0  0
    3.5727    0.0573    1.5639 N   0  0  0  0  0  0
    4.3545    0.1353    2.7863 C   0  0  0  0  0  0
    3.1320    1.2558    1.0013 C   0  0  0  0  0  0
    3.1619    2.3424    1.5829 O   0  0  0  0  0  0
    2.6025    1.2610   -0.3716 C   0  0  0  0  0  0
    1.3283    0.7430   -0.6420 C   0  0  0  0  0  0
    0.8134    0.7856   -1.9445 C   0  0  0  0  0  0
   -0.4605    0.2774   -2.2945 N   0  0  0  0  0  0
   -1.3033   -0.5232   -1.5000 C   0  0  0  0  0  0
   -1.3964   -1.8987   -1.7421 C   0  0  0  0  0  0
   -2.1959   -2.7046   -0.9312 C   0  0  0  0  0  0
   -2.9217   -2.1406    0.1166 C   0  0  0  0  0  0
   -2.8459   -0.7685    0.3468 C   0  0  0  0  0  0
   -3.5308   -0.1510    1.3535 O   0  0  0  0  0  0
   -4.9549   -0.3102    1.2526 C   0  0  0  0  0  0
   -5.3282   -0.5303   -0.0348 F   0  0  0  0  0  0
   -5.2952   -1.4159    1.9690 F   0  0  0  0  0  0
   -5.6699    0.9194    1.8123 C   0  0  0  0  0  0
   -5.2730    2.0573    1.1791 F   0  0  0  0  0  0
   -7.0155    0.8349    1.6235 F   0  0  0  0  0  0
   -2.0096    0.0320   -0.4296 C   0  0  0  0  0  0
    1.5615    1.4363   -2.9420 C   0  0  0  0  0  0
    2.8242    1.9649   -2.6686 C   0  0  0  0  0  0
    3.3439    1.8661   -1.3836 C   0  0  0  0  0  0
    4.5699    2.3575   -1.1445 F   0  0  0  0  0  0
    3.7245   -2.0282    1.5764 H   0  0  0  0  0  0
    2.6798   -1.3818    0.3099 H   0  0  0  0  0  0
    4.4474   -1.2269    0.1583 H   0  0  0  0  0  0
    4.2099    1.0842    3.3088 H   0  0  0  0  0  0
    5.4170    0.0357    2.5372 H   0  0  0  0  0  0
    4.0593   -0.6798    3.4528 H   0  0  0  0  0  0
    0.7614    0.2977    0.1688 H   0  0  0  0  0  0
   -0.4820   -0.0068   -3.2699 H   0  0  0  0  0  0
   -0.8304   -2.3519   -2.5519 H   0  0  0  0  0  0
   -2.2553   -3.7750   -1.1141 H   0  0  0  0  0  0
   -3.5417   -2.7736    0.7422 H   0  0  0  0  0  0
   -5.4859    1.0487    2.8826 H   0  0  0  0  0  0
   -1.9302    1.0977   -0.2268 H   0  0  0  0  0  0
    1.1569    1.5320   -3.9457 H   0  0  0  0  0  0
    3.3974    2.4585   -3.4443 H   0  0  0  0  0  0
  1  2  1  0  0  0
  1 27  1  0  0  0
  1 28  1  0  0  0
  1 29  1  0  0  0
  2  3  1  0  0  0
  2  4  1  0  0  0
  3 30  1  0  0  0
  3 31  1  0  0  0
  3 32  1  0  0  0
  4  5  2  0  0  0
  4  6  1  0  0  0
  6  7  2  0  0  0
  6 25  1  0  0  0
  7  8  1  0  0  0
  7 33  1  0  0  0
  8  9  1  0  0  0
  8 23  2  0  0  0
  9 10  1  0  0  0
  9 34  1  0  0  0
 10 11  2  0  0  0
 10 22  1  0  0  0
 11 12  1  0  0  0
 11 35  1  0  0  0
 12 13  2  0  0  0
 12 36  1  0  0  0
 13 14  1  0  0  0
 13 37  1  0  0  0
 14 15  1  0  0  0
 14 22  2  0  0  0
 15 16  1  0  0  0
 16 17  1  0  0  0
 16 18  1  0  0  0
 16 19  1  0  0  0
 19 20  1  0  0  0
 19 21  1  0  0  0
 19 38  1  0  0  0
 22 39  1  0  0  0
 23 24  1  0  0  0
 23 40  1  0  0  0
 24 25  2  0  0  0
 24 41  1  0  0  0
 25 26  1  0  0  0
M  END
> <energy>
91.553

> <i_ionizer_Ion_state_n>
0

> <i_ionizer_Tot_Q>
0

> <s_ionizer_Ion_centers>


> <s_ionizer_Ion_types>


> <s_ionizer_Ion_ctrs_in>


> <r_ionizer_Ionization_penalty>
0

> <r_ionizer_Ionization_penalty_charging>
0

> <r_ionizer_Ionization_penalty_neutral>
0

$$$$
ZINC001211853486
                    3D
 Schrodinger Suite 2019-4.
 38 39  0  0  1  0            999 V2000
    3.3381    0.6419   -2.4202 C   0  0  0  0  0  0
    3.8174   -0.6702   -2.1190 O   0  0  0  0  0  0
    3.1925   -1.1612   -1.0029 C   0  0  0  0  0  0
    1.9418   -1.7651   -1.1485 C   0  0  0  0  0  0
    1.2651   -2.2667   -0.0269 C   0  0  0  0  0  0
   -0.0757   -2.7266   -0.1679 N   0  0  0  0  0  0
   -1.1787   -1.9118    0.2104 C   0  0  0  0  0  0
   -2.2397   -2.4960    0.9168 C   0  0  0  0  0  0
   -3.3634   -1.7398    1.2660 C   0  0  0  0  0  0
   -3.4531   -0.4104    0.8663 C   0  0  0  0  0  0
   -4.5347    0.3001    1.2186 F   0  0  0  0  0  0
   -2.4232    0.1690    0.1327 C   0  0  0  0  0  0
   -2.5549    1.5490   -0.3658 C   0  0  0  0  0  0
   -3.4299    1.7638   -1.2033 O   0  0  0  0  0  0
   -1.6549    2.5209    0.0800 N   0  0  0  0  0  0
   -1.8533    3.8828   -0.3967 C   0  0  0  0  0  0
   -0.8642    2.3839    1.2955 C   0  0  0  0  0  0
   -1.2875   -0.5783   -0.2060 C   0  0  0  0  0  0
    1.8918   -2.1783    1.2344 C   0  0  0  0  0  0
    1.1438   -2.8047    2.6654 Cl  0  0  0  0  0  0
    3.1600   -1.6077    1.3697 C   0  0  0  0  0  0
    3.8058   -1.0899    0.2511 C   0  0  0  0  0  0
    5.3458   -0.3412    0.4620 Cl  0  0  0  0  0  0
    4.0485    1.1112   -3.1079 H   0  0  0  0  0  0
    2.3647    0.5831   -2.9188 H   0  0  0  0  0  0
    3.2677    1.2729   -1.5259 H   0  0  0  0  0  0
    1.4917   -1.8165   -2.1354 H   0  0  0  0  0  0
   -0.2373   -3.0131   -1.1349 H   0  0  0  0  0  0
   -2.1784   -3.5374    1.2254 H   0  0  0  0  0  0
   -4.1727   -2.1835    1.8413 H   0  0  0  0  0  0
   -2.3314    3.9019   -1.3807 H   0  0  0  0  0  0
   -2.4942    4.4122    0.3150 H   0  0  0  0  0  0
   -0.8868    4.3905   -0.4720 H   0  0  0  0  0  0
   -0.6665    1.3432    1.5585 H   0  0  0  0  0  0
   -1.4163    2.8472    2.1187 H   0  0  0  0  0  0
    0.0932    2.8944    1.1574 H   0  0  0  0  0  0
   -0.5039   -0.1137   -0.7992 H   0  0  0  0  0  0
    3.6328   -1.5560    2.3468 H   0  0  0  0  0  0
  1  2  1  0  0  0
  1 24  1  0  0  0
  1 25  1  0  0  0
  1 26  1  0  0  0
  2  3  1  0  0  0
  3  4  2  0  0  0
  3 22  1  0  0  0
  4  5  1  0  0  0
  4 27  1  0  0  0
  5  6  1  0  0  0
  5 19  2  0  0  0
  6  7  1  0  0  0
  6 28  1  0  0  0
  7  8  2  0  0  0
  7 18  1  0  0  0
  8  9  1  0  0  0
  8 29  1  0  0  0
  9 10  2  0  0  0
  9 30  1  0  0  0
 10 11  1  0  0  0
 10 12  1  0  0  0
 12 13  1  0  0  0
 12 18  2  0  0  0
 13 14  2  0  0  0
 13 15  1  0  0  0
 15 16  1  0  0  0
 15 17  1  0  0  0
 16 31  1  0  0  0
 16 32  1  0  0  0
 16 33  1  0  0  0
 17 34  1  0  0  0
 17 35  1  0  0  0
 17 36  1  0  0  0
 18 37  1  0  0  0
 19 20  1  0  0  0
 19 21  1  0  0  0
 21 22  2  0  0  0
 21 38  1  0  0  0
 22 23  1  0  0  0
M  END
> <energy>
59.2912

> <i_ionizer_Ion_state_n>
0

> <i_ionizer_Tot_Q>
0

> <s_ionizer_Ion_centers>


> <s_ionizer_Ion_types>


> <s_ionizer_Ion_ctrs_in>


> <r_ionizer_Ionization_penalty>
0

> <r_ionizer_Ionization_penalty_charging>
0

> <r_ionizer_Ionization_penalty_neutral>
0

$$$$
ZINC001211853510
                    3D
 Schrodinger Suite 2019-4.
 46 48  0  0  1  0            999 V2000
   -2.9354    0.5145   -0.1075 C   0  0  0  0  0  0
   -3.0837    1.4387    0.9981 N   0  0  0  0  0  0
   -4.0872    1.0866    1.9865 C   0  0  0  0  0  0
   -2.3052    2.5787    1.1779 C   0  0  0  0  0  0
   -2.4645    3.3874    2.0857 O   0  0  0  0  0  0
   -1.1559    2.7789    0.2864 C   0  0  0  0  0  0
    0.0808    2.2659    0.6806 C   0  0  0  0  0  0
    1.2167    2.4719   -0.1099 C   0  0  0  0  0  0
    2.4772    1.9778    0.3054 N   0  0  0  0  0  0
    2.6931    0.6667    0.8002 C   0  0  0  0  0  0
    3.5387    0.4843    1.9015 C   0  0  0  0  0  0
    3.8907   -0.7973    2.3344 C   0  0  0  0  0  0
    3.4364   -1.9112    1.6360 C   0  0  0  0  0  0
    2.6154   -1.7419    0.5163 C   0  0  0  0  0  0
    2.2543   -2.9407   -0.2761 C   0  0  0  0  0  0
    3.0731   -3.8380   -0.4482 O   0  0  0  0  0  0
    0.9221   -3.0465   -0.9006 C   0  0  0  0  0  0
   -0.2378   -2.8069   -0.1596 C   0  0  0  0  0  0
   -1.4846   -2.9194   -0.7794 C   0  0  0  0  0  0
   -1.5685   -3.2534   -2.1316 C   0  0  0  0  0  0
   -0.4061   -3.4980   -2.8660 C   0  0  0  0  0  0
    0.8411   -3.4113   -2.2478 C   0  0  0  0  0  0
    2.2337   -0.4579    0.1015 C   0  0  0  0  0  0
    1.0966    3.2398   -1.2773 C   0  0  0  0  0  0
   -0.1518    3.7299   -1.6869 C   0  0  0  0  0  0
   -1.2797    3.4921   -0.9016 C   0  0  0  0  0  0
   -2.4709    3.9324   -1.3262 F   0  0  0  0  0  0
   -3.9227    0.1351   -0.3800 H   0  0  0  0  0  0
   -2.4904    0.9798   -0.9884 H   0  0  0  0  0  0
   -2.2962   -0.3057    0.2259 H   0  0  0  0  0  0
   -5.0735    1.2057    1.5245 H   0  0  0  0  0  0
   -3.9576    0.0376    2.2712 H   0  0  0  0  0  0
   -4.0337    1.7110    2.8823 H   0  0  0  0  0  0
    0.1610    1.7319    1.6243 H   0  0  0  0  0  0
    3.1937    2.1756   -0.3937 H   0  0  0  0  0  0
    3.9250    1.3511    2.4312 H   0  0  0  0  0  0
    4.5301   -0.9218    3.2057 H   0  0  0  0  0  0
    3.7302   -2.9117    1.9569 H   0  0  0  0  0  0
   -0.1848   -2.5638    0.8973 H   0  0  0  0  0  0
   -2.3926   -2.7459   -0.2089 H   0  0  0  0  0  0
   -2.5442   -3.3410   -2.6076 H   0  0  0  0  0  0
   -0.4753   -3.7548   -3.9190 H   0  0  0  0  0  0
    1.7453   -3.6243   -2.8169 H   0  0  0  0  0  0
    1.6292   -0.3302   -0.7936 H   0  0  0  0  0  0
    1.9675    3.4502   -1.8938 H   0  0  0  0  0  0
   -0.2500    4.2979   -2.6092 H   0  0  0  0  0  0
  1  2  1  0  0  0
  1 28  1  0  0  0
  1 29  1  0  0  0
  1 30  1  0  0  0
  2  3  1  0  0  0
  2  4  1  0  0  0
  3 31  1  0  0  0
  3 32  1  0  0  0
  3 33  1  0  0  0
  4  5  2  0  0  0
  4  6  1  0  0  0
  6  7  2  0  0  0
  6 26  1  0  0  0
  7  8  1  0  0  0
  7 34  1  0  0  0
  8  9  1  0  0  0
  8 24  2  0  0  0
  9 10  1  0  0  0
  9 35  1  0  0  0
 10 11  2  0  0  0
 10 23  1  0  0  0
 11 12  1  0  0  0
 11 36  1  0  0  0
 12 13  2  0  0  0
 12 37  1  0  0  0
 13 14  1  0  0  0
 13 38  1  0  0  0
 14 15  1  0  0  0
 14 23  2  0  0  0
 15 16  2  0  0  0
 15 17  1  0  0  0
 17 18  2  0  0  0
 17 22  1  0  0  0
 18 19  1  0  0  0
 18 39  1  0  0  0
 19 20  2  0  0  0
 19 40  1  0  0  0
 20 21  1  0  0  0
 20 41  1  0  0  0
 21 22  2  0  0  0
 21 42  1  0  0  0
 22 43  1  0  0  0
 23 44  1  0  0  0
 24 25  1  0  0  0
 24 45  1  0  0  0
 25 26  2  0  0  0
 25 46  1  0  0  0
 26 27  1  0  0  0
M  END
> <energy>
80.1614

> <i_ionizer_Ion_state_n>
0

> <i_ionizer_Tot_Q>
0

> <s_ionizer_Ion_centers>


> <s_ionizer_Ion_types>


> <s_ionizer_Ion_ctrs_in>


> <r_ionizer_Ionization_penalty>
0

> <r_ionizer_Ionization_penalty_charging>
0

> <r_ionizer_Ionization_penalty_neutral>
0

$$$$
ZINC001211853540
                    3D
 Schrodinger Suite 2019-4.
 34 35  0  0  1  0            999 V2000
   -4.2194    0.2273    0.8833 C   0  0  0  0  0  0
   -3.0026    0.5382    0.1477 N   0  0  0  0  0  0
   -2.4698   -0.5176   -0.7011 C   0  0  0  0  0  0
   -2.3236    1.7201    0.4469 C   0  0  0  0  0  0
   -2.7248    2.5763    1.2266 O   0  0  0  0  0  0
   -0.9860    1.9107   -0.1278 C   0  0  0  0  0  0
    0.0989    1.2918    0.4960 C   0  0  0  0  0  0
    1.3779    1.4182   -0.0537 C   0  0  0  0  0  0
    2.4728    0.7240    0.5243 N   0  0  0  0  0  0
    2.5083   -0.7011    0.4690 C   0  0  0  0  0  0
    2.7149   -1.3451   -0.7576 C   0  0  0  0  0  0
    2.7215   -2.7387   -0.8219 C   0  0  0  0  0  0
    3.0173   -3.5233   -2.3250 Cl  0  0  0  0  0  0
    2.4920   -3.5031    0.3208 C   0  0  0  0  0  0
    2.2585   -2.8608    1.5354 C   0  0  0  0  0  0
    1.9140   -3.8797    3.0877 Br  0  0  0  0  0  0
    2.2705   -1.4682    1.6176 C   0  0  0  0  0  0
    1.5666    2.2010   -1.2007 C   0  0  0  0  0  0
    0.4754    2.8330   -1.8093 C   0  0  0  0  0  0
   -0.7994    2.6768   -1.2699 C   0  0  0  0  0  0
   -1.8374    3.2560   -1.8868 F   0  0  0  0  0  0
   -4.0121   -0.5812    1.5902 H   0  0  0  0  0  0
   -4.9893   -0.0956    0.1779 H   0  0  0  0  0  0
   -4.5961    1.0912    1.4361 H   0  0  0  0  0  0
   -1.9957   -1.2746   -0.0679 H   0  0  0  0  0  0
   -3.2840   -0.9744   -1.2683 H   0  0  0  0  0  0
   -1.7396   -0.1304   -1.4160 H   0  0  0  0  0  0
   -0.0614    0.6976    1.3924 H   0  0  0  0  0  0
    2.5159    1.0082    1.5051 H   0  0  0  0  0  0
    2.8860   -0.7538   -1.6550 H   0  0  0  0  0  0
    2.4970   -4.5868    0.2612 H   0  0  0  0  0  0
    2.0760   -0.9805    2.5711 H   0  0  0  0  0  0
    2.5660    2.3145   -1.6213 H   0  0  0  0  0  0
    0.6117    3.4301   -2.7071 H   0  0  0  0  0  0
  1  2  1  0  0  0
  1 22  1  0  0  0
  1 23  1  0  0  0
  1 24  1  0  0  0
  2  3  1  0  0  0
  2  4  1  0  0  0
  3 25  1  0  0  0
  3 26  1  0  0  0
  3 27  1  0  0  0
  4  5  2  0  0  0
  4  6  1  0  0  0
  6  7  2  0  0  0
  6 20  1  0  0  0
  7  8  1  0  0  0
  7 28  1  0  0  0
  8  9  1  0  0  0
  8 18  2  0  0  0
  9 10  1  0  0  0
  9 29  1  0  0  0
 10 11  2  0  0  0
 10 17  1  0  0  0
 11 12  1  0  0  0
 11 30  1  0  0  0
 12 13  1  0  0  0
 12 14  2  0  0  0
 14 15  1  0  0  0
 14 31  1  0  0  0
 15 16  1  0  0  0
 15 17  2  0  0  0
 17 32  1  0  0  0
 18 19  1  0  0  0
 18 33  1  0  0  0
 19 20  2  0  0  0
 19 34  1  0  0  0
 20 21  1  0  0  0
M  END
> <energy>
20.552

> <i_ionizer_Ion_state_n>
0

> <i_ionizer_Tot_Q>
0

> <s_ionizer_Ion_centers>


> <s_ionizer_Ion_types>


> <s_ionizer_Ion_ctrs_in>


> <r_ionizer_Ionization_penalty>
0

> <r_ionizer_Ionization_penalty_charging>
0

> <r_ionizer_Ionization_penalty_neutral>
0

$$$$
ZINC001211853561
                    3D
 Schrodinger Suite 2019-4.
 37 38  0  0  1  0            999 V2000
    2.6852   -1.0381    0.8451 C   0  0  0  0  0  0
    3.5271   -0.2540   -0.0467 N   0  0  0  0  0  0
    4.6223   -0.9643   -0.6910 C   0  0  0  0  0  0
    3.1793    1.0122   -0.5175 C   0  0  0  0  0  0
    3.8012    1.6353   -1.3726 O   0  0  0  0  0  0
    1.9253    1.6083   -0.0387 C   0  0  0  0  0  0
    0.7640    1.3860   -0.7826 C   0  0  0  0  0  0
   -0.4516    1.9247   -0.3475 C   0  0  0  0  0  0
   -1.6550    1.6281   -1.0433 N   0  0  0  0  0  0
   -2.2272    0.3303   -0.9357 C   0  0  0  0  0  0
   -2.2725   -0.5218   -2.0427 C   0  0  0  0  0  0
   -2.7751   -1.8166   -1.9182 C   0  0  0  0  0  0
   -3.2755   -2.2622   -0.6910 C   0  0  0  0  0  0
   -3.8846   -3.8770   -0.6277 Cl  0  0  0  0  0  0
   -3.2797   -1.4208    0.4271 C   0  0  0  0  0  0
   -3.9120   -1.8408    1.7219 C   0  0  0  0  0  0
   -5.2602   -1.9966    1.6113 F   0  0  0  0  0  0
   -3.7356   -0.9311    2.7242 F   0  0  0  0  0  0
   -3.4215   -3.0107    2.2164 F   0  0  0  0  0  0
   -2.7221   -0.1320    0.2929 C   0  0  0  0  0  0
   -0.4886    2.7001    0.8181 C   0  0  0  0  0  0
    0.6824    2.9313    1.5485 C   0  0  0  0  0  0
    1.8874    2.3849    1.1164 C   0  0  0  0  0  0
    2.9971    2.5971    1.8357 F   0  0  0  0  0  0
    1.9945   -1.6359    0.2427 H   0  0  0  0  0  0
    3.3170   -1.6969    1.4500 H   0  0  0  0  0  0
    2.1102   -0.4070    1.5262 H   0  0  0  0  0  0
    5.2083   -1.4842    0.0717 H   0  0  0  0  0  0
    5.2778   -0.2945   -1.2473 H   0  0  0  0  0  0
    4.2068   -1.7048   -1.3791 H   0  0  0  0  0  0
    0.8120    0.7848   -1.6891 H   0  0  0  0  0  0
   -1.4828    1.8231   -2.0297 H   0  0  0  0  0  0
   -1.8956   -0.1970   -3.0087 H   0  0  0  0  0  0
   -2.7787   -2.4749   -2.7866 H   0  0  0  0  0  0
   -2.7095    0.5398    1.1483 H   0  0  0  0  0  0
   -1.4308    3.1343    1.1504 H   0  0  0  0  0  0
    0.6605    3.5408    2.4489 H   0  0  0  0  0  0
  1  2  1  0  0  0
  1 25  1  0  0  0
  1 26  1  0  0  0
  1 27  1  0  0  0
  2  3  1  0  0  0
  2  4  1  0  0  0
  3 28  1  0  0  0
  3 29  1  0  0  0
  3 30  1  0  0  0
  4  5  2  0  0  0
  4  6  1  0  0  0
  6  7  2  0  0  0
  6 23  1  0  0  0
  7  8  1  0  0  0
  7 31  1  0  0  0
  8  9  1  0  0  0
  8 21  2  0  0  0
  9 10  1  0  0  0
  9 32  1  0  0  0
 10 11  2  0  0  0
 10 20  1  0  0  0
 11 12  1  0  0  0
 11 33  1  0  0  0
 12 13  2  0  0  0
 12 34  1  0  0  0
 13 14  1  0  0  0
 13 15  1  0  0  0
 15 16  1  0  0  0
 15 20  2  0  0  0
 16 17  1  0  0  0
 16 18  1  0  0  0
 16 19  1  0  0  0
 20 35  1  0  0  0
 21 22  1  0  0  0
 21 36  1  0  0  0
 22 23  2  0  0  0
 22 37  1  0  0  0
 23 24  1  0  0  0
M  END
> <energy>
32.5663

> <i_ionizer_Ion_state_n>
0

> <i_ionizer_Tot_Q>
0

> <s_ionizer_Ion_centers>


> <s_ionizer_Ion_types>


> <s_ionizer_Ion_ctrs_in>


> <r_ionizer_Ionization_penalty>
0

> <r_ionizer_Ionization_penalty_charging>
0

> <r_ionizer_Ionization_penalty_neutral>
0

$$$$
ZINC001211853594
                    3D
 Schrodinger Suite 2019-4.
 40 41  0  0  1  0            999 V2000
   -2.5725    0.7322   -2.1506 C   0  0  0  0  0  0
   -3.3022   -0.1712   -1.1696 C   0  0  0  0  0  0
   -3.0349    0.1655    0.2820 C   0  0  0  0  0  0
   -3.6768    1.2868    0.8399 C   0  0  0  0  0  0
   -3.5280    1.5881    2.1916 C   0  0  0  0  0  0
   -4.4423    3.0712    2.9259 Br  0  0  0  0  0  0
   -2.7313    0.7948    3.0084 C   0  0  0  0  0  0
   -2.0742   -0.3109    2.4668 C   0  0  0  0  0  0
   -2.2244   -0.6410    1.1086 C   0  0  0  0  0  0
   -1.4840   -1.7291    0.5763 N   0  0  0  0  0  0
   -0.3016   -1.5726   -0.1941 C   0  0  0  0  0  0
    0.1120   -2.6332   -1.0145 C   0  0  0  0  0  0
    1.2769   -2.5266   -1.7828 C   0  0  0  0  0  0
    2.0497   -1.3722   -1.7064 C   0  0  0  0  0  0
    3.1658   -1.2930   -2.4445 F   0  0  0  0  0  0
    1.6807   -0.3362   -0.8558 C   0  0  0  0  0  0
    2.4947    0.8837   -0.7357 C   0  0  0  0  0  0
    2.0057    1.9223   -1.1737 O   0  0  0  0  0  0
    3.7260    0.8212   -0.0788 N   0  0  0  0  0  0
    4.4167    2.0735    0.1941 C   0  0  0  0  0  0
    4.1836   -0.3378    0.6751 C   0  0  0  0  0  0
    0.4973   -0.4250   -0.1155 C   0  0  0  0  0  0
   -2.8914    1.7746   -2.0503 H   0  0  0  0  0  0
   -1.4896    0.6947   -2.0055 H   0  0  0  0  0  0
   -2.7779    0.4206   -3.1795 H   0  0  0  0  0  0
   -4.3822   -0.0977   -1.3516 H   0  0  0  0  0  0
   -3.0477   -1.2168   -1.3789 H   0  0  0  0  0  0
   -4.3082    1.9095    0.2140 H   0  0  0  0  0  0
   -2.6088    1.0293    4.0617 H   0  0  0  0  0  0
   -1.4303   -0.9062    3.1104 H   0  0  0  0  0  0
   -1.3023   -2.4209    1.3027 H   0  0  0  0  0  0
   -0.4957   -3.5323   -1.0856 H   0  0  0  0  0  0
    1.5782   -3.3340   -2.4437 H   0  0  0  0  0  0
    4.0831    2.8754   -0.4692 H   0  0  0  0  0  0
    4.2183    2.3687    1.2300 H   0  0  0  0  0  0
    5.4927    1.9285    0.0553 H   0  0  0  0  0  0
    3.7910   -0.2713    1.6937 H   0  0  0  0  0  0
    3.8487   -1.2756    0.2293 H   0  0  0  0  0  0
    5.2756   -0.3476    0.7028 H   0  0  0  0  0  0
    0.2095    0.4106    0.5177 H   0  0  0  0  0  0
  1  2  1  0  0  0
  1 23  1  0  0  0
  1 24  1  0  0  0
  1 25  1  0  0  0
  2  3  1  0  0  0
  2 26  1  0  0  0
  2 27  1  0  0  0
  3  4  2  0  0  0
  3  9  1  0  0  0
  4  5  1  0  0  0
  4 28  1  0  0  0
  5  6  1  0  0  0
  5  7  2  0  0  0
  7  8  1  0  0  0
  7 29  1  0  0  0
  8  9  2  0  0  0
  8 30  1  0  0  0
  9 10  1  0  0  0
 10 11  1  0  0  0
 10 31  1  0  0  0
 11 12  2  0  0  0
 11 22  1  0  0  0
 12 13  1  0  0  0
 12 32  1  0  0  0
 13 14  2  0  0  0
 13 33  1  0  0  0
 14 15  1  0  0  0
 14 16  1  0  0  0
 16 17  1  0  0  0
 16 22  2  0  0  0
 17 18  2  0  0  0
 17 19  1  0  0  0
 19 20  1  0  0  0
 19 21  1  0  0  0
 20 34  1  0  0  0
 20 35  1  0  0  0
 20 36  1  0  0  0
 21 37  1  0  0  0
 21 38  1  0  0  0
 21 39  1  0  0  0
 22 40  1  0  0  0
M  END
> <energy>
32.3824

> <i_ionizer_Ion_state_n>
0

> <i_ionizer_Tot_Q>
0

> <s_ionizer_Ion_centers>


> <s_ionizer_Ion_types>


> <s_ionizer_Ion_ctrs_in>


> <r_ionizer_Ionization_penalty>
0

> <r_ionizer_Ionization_penalty_charging>
0

> <r_ionizer_Ionization_penalty_neutral>
0

$$$$
ZINC001211853595
                    3D
 Schrodinger Suite 2019-4.
 34 35  0  0  1  0            999 V2000
    2.7116   -3.3822    0.4196 C   0  0  0  0  0  0
    2.5270   -1.9538    0.1863 N   0  0  0  0  0  0
    2.8155   -1.4845   -1.1618 C   0  0  0  0  0  0
    2.0020   -1.1646    1.2132 C   0  0  0  0  0  0
    1.7524   -1.5774    2.3398 O   0  0  0  0  0  0
    1.6450    0.2318    0.9079 C   0  0  0  0  0  0
    0.3950    0.4959    0.3498 C   0  0  0  0  0  0
    0.0389    1.8053    0.0107 C   0  0  0  0  0  0
   -1.2030    2.1072   -0.5970 N   0  0  0  0  0  0
   -2.3687    1.3157   -0.4867 C   0  0  0  0  0  0
   -2.9496    1.0937    0.7695 C   0  0  0  0  0  0
   -4.0901    0.2992    0.9012 C   0  0  0  0  0  0
   -4.6436   -0.3133   -0.2256 C   0  0  0  0  0  0
   -6.1968   -1.3769    0.0244 Br  0  0  0  0  0  0
   -4.0460   -0.1316   -1.4795 C   0  0  0  0  0  0
   -4.6548   -0.8682   -2.9208 Cl  0  0  0  0  0  0
   -2.9108    0.6787   -1.6056 C   0  0  0  0  0  0
    0.9599    2.8394    0.2347 C   0  0  0  0  0  0
    2.1980    2.5761    0.8333 C   0  0  0  0  0  0
    2.5329    1.2679    1.1695 C   0  0  0  0  0  0
    3.7324    1.0250    1.7091 F   0  0  0  0  0  0
    2.4674   -3.6724    1.4449 H   0  0  0  0  0  0
    3.7559   -3.6447    0.2145 H   0  0  0  0  0  0
    2.0604   -3.9360   -0.2648 H   0  0  0  0  0  0
    2.9003   -0.3993   -1.2171 H   0  0  0  0  0  0
    3.7679   -1.9132   -1.4947 H   0  0  0  0  0  0
    2.0171   -1.8104   -1.8383 H   0  0  0  0  0  0
   -0.2840   -0.3293    0.1568 H   0  0  0  0  0  0
   -1.0557    2.4570   -1.5397 H   0  0  0  0  0  0
   -2.5119    1.5587    1.6511 H   0  0  0  0  0  0
   -4.5331    0.1661    1.8854 H   0  0  0  0  0  0
   -2.4412    0.7948   -2.5794 H   0  0  0  0  0  0
    0.7043    3.8639   -0.0314 H   0  0  0  0  0  0
    2.9053    3.3814    1.0210 H   0  0  0  0  0  0
  1  2  1  0  0  0
  1 22  1  0  0  0
  1 23  1  0  0  0
  1 24  1  0  0  0
  2  3  1  0  0  0
  2  4  1  0  0  0
  3 25  1  0  0  0
  3 26  1  0  0  0
  3 27  1  0  0  0
  4  5  2  0  0  0
  4  6  1  0  0  0
  6  7  2  0  0  0
  6 20  1  0  0  0
  7  8  1  0  0  0
  7 28  1  0  0  0
  8  9  1  0  0  0
  8 18  2  0  0  0
  9 10  1  0  0  0
  9 29  1  0  0  0
 10 11  2  0  0  0
 10 17  1  0  0  0
 11 12  1  0  0  0
 11 30  1  0  0  0
 12 13  2  0  0  0
 12 31  1  0  0  0
 13 14  1  0  0  0
 13 15  1  0  0  0
 15 16  1  0  0  0
 15 17  2  0  0  0
 17 32  1  0  0  0
 18 19  1  0  0  0
 18 33  1  0  0  0
 19 20  2  0  0  0
 19 34  1  0  0  0
 20 21  1  0  0  0
M  END
> <energy>
33.2104

> <i_ionizer_Ion_state_n>
0

> <i_ionizer_Tot_Q>
0

> <s_ionizer_Ion_centers>


> <s_ionizer_Ion_types>


> <s_ionizer_Ion_ctrs_in>


> <r_ionizer_Ionization_penalty>
0

> <r_ionizer_Ionization_penalty_charging>
0

> <r_ionizer_Ionization_penalty_neutral>
0

$$$$
ZINC001211853748
                    3D
 Schrodinger Suite 2019-4.
 41 42  0  0  1  0            999 V2000
    4.2218   -2.4397   -0.7211 C   0  0  0  0  0  0
    3.3569   -1.2747   -0.8079 N   0  0  0  0  0  0
    1.9567   -1.5347   -1.1274 C   0  0  0  0  0  0
    3.8651   -0.0297   -0.4388 C   0  0  0  0  0  0
    5.0344    0.1873   -0.1357 O   0  0  0  0  0  0
    2.9203    1.0869   -0.3112 C   0  0  0  0  0  0
    2.0767    1.1290    0.8015 C   0  0  0  0  0  0
    1.1281    2.1501    0.9183 C   0  0  0  0  0  0
    0.1601    2.1080    1.9612 N   0  0  0  0  0  0
   -1.0007    1.2995    1.7835 C   0  0  0  0  0  0
   -1.0472   -0.0084    2.2882 C   0  0  0  0  0  0
   -2.1334   -0.8372    2.0028 C   0  0  0  0  0  0
   -3.1669   -0.3661    1.1977 C   0  0  0  0  0  0
   -4.2205   -1.1890    0.9269 O   0  0  0  0  0  0
   -4.0650   -1.8867   -0.3211 C   0  0  0  0  0  0
   -4.3146   -3.1995   -0.0485 F   0  0  0  0  0  0
   -2.7818   -1.8345   -0.7663 F   0  0  0  0  0  0
   -5.0520   -1.3889   -1.3782 C   0  0  0  0  0  0
   -4.9150   -2.0745   -2.5449 F   0  0  0  0  0  0
   -4.8489   -0.0783   -1.6808 F   0  0  0  0  0  0
   -3.1520    0.9393    0.7149 C   0  0  0  0  0  0
   -2.0596    1.7623    0.9937 C   0  0  0  0  0  0
    1.0503    3.1285   -0.0822 C   0  0  0  0  0  0
    1.9185    3.0977   -1.1783 C   0  0  0  0  0  0
    2.8509    2.0692   -1.2920 C   0  0  0  0  0  0
    3.6461    2.0297   -2.3692 F   0  0  0  0  0  0
    4.1626   -2.9911   -1.6635 H   0  0  0  0  0  0
    5.2650   -2.1692   -0.5327 H   0  0  0  0  0  0
    3.8675   -3.0785    0.0944 H   0  0  0  0  0  0
    1.4623   -1.9266   -0.2334 H   0  0  0  0  0  0
    1.9090   -2.2757   -1.9298 H   0  0  0  0  0  0
    1.4388   -0.6336   -1.4625 H   0  0  0  0  0  0
    2.1430    0.3430    1.5494 H   0  0  0  0  0  0
    0.6310    1.7691    2.8012 H   0  0  0  0  0  0
   -0.2307   -0.4029    2.8864 H   0  0  0  0  0  0
   -2.1604   -1.8512    2.3905 H   0  0  0  0  0  0
   -6.0846   -1.5008   -1.0349 H   0  0  0  0  0  0
   -3.9691    1.3251    0.1146 H   0  0  0  0  0  0
   -2.0332    2.7718    0.5933 H   0  0  0  0  0  0
    0.3093    3.9203   -0.0037 H   0  0  0  0  0  0
    1.8610    3.8548   -1.9546 H   0  0  0  0  0  0
  1  2  1  0  0  0
  1 27  1  0  0  0
  1 28  1  0  0  0
  1 29  1  0  0  0
  2  3  1  0  0  0
  2  4  1  0  0  0
  3 30  1  0  0  0
  3 31  1  0  0  0
  3 32  1  0  0  0
  4  5  2  0  0  0
  4  6  1  0  0  0
  6  7  2  0  0  0
  6 25  1  0  0  0
  7  8  1  0  0  0
  7 33  1  0  0  0
  8  9  1  0  0  0
  8 23  2  0  0  0
  9 10  1  0  0  0
  9 34  1  0  0  0
 10 11  2  0  0  0
 10 22  1  0  0  0
 11 12  1  0  0  0
 11 35  1  0  0  0
 12 13  2  0  0  0
 12 36  1  0  0  0
 13 14  1  0  0  0
 13 21  1  0  0  0
 14 15  1  0  0  0
 15 16  1  0  0  0
 15 17  1  0  0  0
 15 18  1  0  0  0
 18 19  1  0  0  0
 18 20  1  0  0  0
 18 37  1  0  0  0
 21 22  2  0  0  0
 21 38  1  0  0  0
 22 39  1  0  0  0
 23 24  1  0  0  0
 23 40  1  0  0  0
 24 25  2  0  0  0
 24 41  1  0  0  0
 25 26  1  0  0  0
M  END
> <energy>
95.5202

> <i_ionizer_Ion_state_n>
0

> <i_ionizer_Tot_Q>
0

> <s_ionizer_Ion_centers>


> <s_ionizer_Ion_types>


> <s_ionizer_Ion_ctrs_in>


> <r_ionizer_Ionization_penalty>
0

> <r_ionizer_Ionization_penalty_charging>
0

> <r_ionizer_Ionization_penalty_neutral>
0

$$$$
ZINC001211853790
                    3D
 Schrodinger Suite 2019-4.
 37 38  0  0  1  0            999 V2000
    3.9740   -1.6403    1.7362 C   0  0  0  0  0  0
    3.3959   -0.6537    0.8336 N   0  0  0  0  0  0
    3.6829   -0.8272   -0.5841 C   0  0  0  0  0  0
    2.5070    0.2908    1.3482 C   0  0  0  0  0  0
    2.2357    0.4153    2.5380 O   0  0  0  0  0  0
    1.7791    1.1484    0.4070 C   0  0  0  0  0  0
    0.6073    0.6616   -0.1736 C   0  0  0  0  0  0
   -0.0952    1.4441   -1.0969 C   0  0  0  0  0  0
   -1.2419    0.9481   -1.7632 N   0  0  0  0  0  0
   -2.1349    0.0083   -1.1994 C   0  0  0  0  0  0
   -2.2516   -1.2806   -1.7251 C   0  0  0  0  0  0
   -3.0897   -2.2107   -1.1130 C   0  0  0  0  0  0
   -3.2139   -3.7977   -1.7682 Cl  0  0  0  0  0  0
   -3.8314   -1.8646    0.0137 C   0  0  0  0  0  0
   -3.7373   -0.5728    0.5471 C   0  0  0  0  0  0
   -4.5731   -0.1839    1.7390 C   0  0  0  0  0  0
   -4.6606    1.1626    1.9222 F   0  0  0  0  0  0
   -5.8562   -0.6302    1.6354 F   0  0  0  0  0  0
   -4.0874   -0.6942    2.9013 F   0  0  0  0  0  0
   -2.8585    0.3439   -0.0467 C   0  0  0  0  0  0
    0.4152    2.7037   -1.4495 C   0  0  0  0  0  0
    1.5718    3.1999   -0.8380 C   0  0  0  0  0  0
    2.2459    2.4202    0.0971 C   0  0  0  0  0  0
    3.3587    2.9041    0.6621 F   0  0  0  0  0  0
    5.0615   -1.6267    1.6200 H   0  0  0  0  0  0
    3.5943   -2.6299    1.4634 H   0  0  0  0  0  0
    3.7230   -1.4410    2.7817 H   0  0  0  0  0  0
    3.4675    0.0740   -1.1618 H   0  0  0  0  0  0
    4.7434   -1.0615   -0.7079 H   0  0  0  0  0  0
    3.0772   -1.6529   -0.9707 H   0  0  0  0  0  0
    0.2627   -0.3341    0.0892 H   0  0  0  0  0  0
   -0.9820    0.6915   -2.7146 H   0  0  0  0  0  0
   -1.6757   -1.5688   -2.5981 H   0  0  0  0  0  0
   -4.4996   -2.5931    0.4687 H   0  0  0  0  0  0
   -2.7505    1.3426    0.3742 H   0  0  0  0  0  0
   -0.1090    3.3144   -2.1844 H   0  0  0  0  0  0
    1.9455    4.1906   -1.0829 H   0  0  0  0  0  0
  1  2  1  0  0  0
  1 25  1  0  0  0
  1 26  1  0  0  0
  1 27  1  0  0  0
  2  3  1  0  0  0
  2  4  1  0  0  0
  3 28  1  0  0  0
  3 29  1  0  0  0
  3 30  1  0  0  0
  4  5  2  0  0  0
  4  6  1  0  0  0
  6  7  2  0  0  0
  6 23  1  0  0  0
  7  8  1  0  0  0
  7 31  1  0  0  0
  8  9  1  0  0  0
  8 21  2  0  0  0
  9 10  1  0  0  0
  9 32  1  0  0  0
 10 11  2  0  0  0
 10 20  1  0  0  0
 11 12  1  0  0  0
 11 33  1  0  0  0
 12 13  1  0  0  0
 12 14  2  0  0  0
 14 15  1  0  0  0
 14 34  1  0  0  0
 15 16  1  0  0  0
 15 20  2  0  0  0
 16 17  1  0  0  0
 16 18  1  0  0  0
 16 19  1  0  0  0
 20 35  1  0  0  0
 21 22  1  0  0  0
 21 36  1  0  0  0
 22 23  2  0  0  0
 22 37  1  0  0  0
 23 24  1  0  0  0
M  END
> <energy>
42.3157

> <i_ionizer_Ion_state_n>
0

> <i_ionizer_Tot_Q>
0

> <s_ionizer_Ion_centers>


> <s_ionizer_Ion_types>


> <s_ionizer_Ion_ctrs_in>


> <r_ionizer_Ionization_penalty>
0

> <r_ionizer_Ionization_penalty_charging>
0

> <r_ionizer_Ionization_penalty_neutral>
0

$$$$
ZINC001211853818
                    3D
 Schrodinger Suite 2019-4.
 40 41  0  0  1  0            999 V2000
   -3.0150    1.3113   -1.3959 C   0  0  0  0  0  0
   -2.9374    0.7628    0.0077 C   0  0  0  0  0  0
   -3.4038    1.5501    1.0717 C   0  0  0  0  0  0
   -3.3262    1.0802    2.3781 C   0  0  0  0  0  0
   -3.9497    2.1570    3.8006 Br  0  0  0  0  0  0
   -2.7792   -0.1704    2.6487 C   0  0  0  0  0  0
   -2.2875   -0.9730    1.6061 C   0  0  0  0  0  0
   -1.6452   -2.2922    1.9454 C   0  0  0  0  0  0
   -2.3692   -0.5056    0.2737 C   0  0  0  0  0  0
   -1.7768   -1.2415   -0.7881 N   0  0  0  0  0  0
   -0.4613   -1.0321   -1.2770 C   0  0  0  0  0  0
    0.0290   -1.8565   -2.3030 C   0  0  0  0  0  0
    1.2996   -1.6428   -2.8516 C   0  0  0  0  0  0
    2.0897   -0.6011   -2.3793 C   0  0  0  0  0  0
    3.3093   -0.4179   -2.9039 F   0  0  0  0  0  0
    1.6176    0.2210   -1.3650 C   0  0  0  0  0  0
    2.4301    1.3212   -0.8259 C   0  0  0  0  0  0
    2.0673    2.4633   -1.0890 O   0  0  0  0  0  0
    3.4973    1.0072    0.0182 N   0  0  0  0  0  0
    4.1438    2.0908    0.7391 C   0  0  0  0  0  0
    3.7507   -0.3357    0.5174 C   0  0  0  0  0  0
    0.3374    0.0307   -0.8375 C   0  0  0  0  0  0
   -3.3520    0.5442   -2.1002 H   0  0  0  0  0  0
   -2.0383    1.6887   -1.7120 H   0  0  0  0  0  0
   -3.7337    2.1344   -1.4604 H   0  0  0  0  0  0
   -3.8201    2.5353    0.8759 H   0  0  0  0  0  0
   -2.7179   -0.5163    3.6782 H   0  0  0  0  0  0
   -2.1486   -3.1102    1.4213 H   0  0  0  0  0  0
   -0.5843   -2.2835    1.6750 H   0  0  0  0  0  0
   -1.7112   -2.5085    3.0171 H   0  0  0  0  0  0
   -1.9678   -2.2370   -0.7013 H   0  0  0  0  0  0
   -0.5890   -2.6575   -2.7008 H   0  0  0  0  0  0
    1.6710   -2.2762   -3.6522 H   0  0  0  0  0  0
    3.7804    2.0912    1.7716 H   0  0  0  0  0  0
    5.2247    1.9216    0.7338 H   0  0  0  0  0  0
    3.9366    3.0654    0.2897 H   0  0  0  0  0  0
    2.9967   -0.5819    1.2715 H   0  0  0  0  0  0
    4.7463   -0.3827    0.9648 H   0  0  0  0  0  0
    3.7041   -1.0709   -0.2888 H   0  0  0  0  0  0
   -0.0174    0.7174   -0.0735 H   0  0  0  0  0  0
  1  2  1  0  0  0
  1 23  1  0  0  0
  1 24  1  0  0  0
  1 25  1  0  0  0
  2  3  2  0  0  0
  2  9  1  0  0  0
  3  4  1  0  0  0
  3 26  1  0  0  0
  4  5  1  0  0  0
  4  6  2  0  0  0
  6  7  1  0  0  0
  6 27  1  0  0  0
  7  8  1  0  0  0
  7  9  2  0  0  0
  8 28  1  0  0  0
  8 29  1  0  0  0
  8 30  1  0  0  0
  9 10  1  0  0  0
 10 11  1  0  0  0
 10 31  1  0  0  0
 11 12  2  0  0  0
 11 22  1  0  0  0
 12 13  1  0  0  0
 12 32  1  0  0  0
 13 14  2  0  0  0
 13 33  1  0  0  0
 14 15  1  0  0  0
 14 16  1  0  0  0
 16 17  1  0  0  0
 16 22  2  0  0  0
 17 18  2  0  0  0
 17 19  1  0  0  0
 19 20  1  0  0  0
 19 21  1  0  0  0
 20 34  1  0  0  0
 20 35  1  0  0  0
 20 36  1  0  0  0
 21 37  1  0  0  0
 21 38  1  0  0  0
 21 39  1  0  0  0
 22 40  1  0  0  0
M  END
> <energy>
34.8916

> <i_ionizer_Ion_state_n>
0

> <i_ionizer_Tot_Q>
0

> <s_ionizer_Ion_centers>


> <s_ionizer_Ion_types>


> <s_ionizer_Ion_ctrs_in>


> <r_ionizer_Ionization_penalty>
0

> <r_ionizer_Ionization_penalty_charging>
0

> <r_ionizer_Ionization_penalty_neutral>
0

$$$$
ZINC001211854009
                    3D
 Schrodinger Suite 2019-4.
 37 38  0  0  1  0            999 V2000
    1.6788   -2.4308   -1.1217 C   0  0  0  0  0  0
    2.1064   -2.5253    0.2695 N   0  0  0  0  0  0
    1.9636   -3.8289    0.9026 C   0  0  0  0  0  0
    2.4676   -1.4376    1.0576 C   0  0  0  0  0  0
    2.7919   -1.5165    2.2395 O   0  0  0  0  0  0
    2.3642   -0.0900    0.4815 C   0  0  0  0  0  0
    1.0984    0.4937    0.3703 C   0  0  0  0  0  0
    0.9682    1.8105   -0.0731 C   0  0  0  0  0  0
   -0.2897    2.4798   -0.1142 N   0  0  0  0  0  0
   -1.5231    1.7948   -0.3370 C   0  0  0  0  0  0
   -2.2517    1.2886    0.7554 C   0  0  0  0  0  0
   -3.4338    0.5595    0.5579 C   0  0  0  0  0  0
   -4.2275    0.0151    1.7165 C   0  0  0  0  0  0
   -4.2097   -1.3455    1.7614 F   0  0  0  0  0  0
   -3.7773    0.4387    2.9292 F   0  0  0  0  0  0
   -5.5376    0.3791    1.6546 F   0  0  0  0  0  0
   -3.8757    0.3198   -0.7481 C   0  0  0  0  0  0
   -3.1563    0.7995   -1.8419 C   0  0  0  0  0  0
   -1.9801    1.5295   -1.6465 C   0  0  0  0  0  0
    2.1281    2.5434   -0.3657 C   0  0  0  0  0  0
    3.3928    1.9500   -0.2767 C   0  0  0  0  0  0
    3.5070    0.6311    0.1537 C   0  0  0  0  0  0
    4.7239    0.0766    0.2408 F   0  0  0  0  0  0
    2.0105   -1.5039   -1.5991 H   0  0  0  0  0  0
    2.1016   -3.2744   -1.6756 H   0  0  0  0  0  0
    0.5854   -2.4833   -1.1553 H   0  0  0  0  0  0
    2.3590   -3.8461    1.9210 H   0  0  0  0  0  0
    0.9007   -4.0847    0.9302 H   0  0  0  0  0  0
    2.4955   -4.5729    0.3036 H   0  0  0  0  0  0
    0.2288   -0.0895    0.6635 H   0  0  0  0  0  0
   -0.3606    3.0083    0.7592 H   0  0  0  0  0  0
   -1.8874    1.4443    1.7659 H   0  0  0  0  0  0
   -4.7913   -0.2463   -0.9192 H   0  0  0  0  0  0
   -3.5254    0.6023   -2.8469 H   0  0  0  0  0  0
    2.0566    3.5835   -0.6716 H   0  0  0  0  0  0
    4.2940    2.5128   -0.5196 H   0  0  0  0  0  0
   -1.1273    2.1209   -3.0996 S   0  5  0  0  0  0
  1  2  1  0  0  0
  1 24  1  0  0  0
  1 25  1  0  0  0
  1 26  1  0  0  0
  2  3  1  0  0  0
  2  4  1  0  0  0
  3 27  1  0  0  0
  3 28  1  0  0  0
  3 29  1  0  0  0
  4  5  2  0  0  0
  4  6  1  0  0  0
  6  7  2  0  0  0
  6 22  1  0  0  0
  7  8  1  0  0  0
  7 30  1  0  0  0
  8  9  1  0  0  0
  8 20  2  0  0  0
  9 10  1  0  0  0
  9 31  1  0  0  0
 10 11  2  0  0  0
 10 19  1  0  0  0
 11 12  1  0  0  0
 11 32  1  0  0  0
 12 13  1  0  0  0
 12 17  2  0  0  0
 13 14  1  0  0  0
 13 15  1  0  0  0
 13 16  1  0  0  0
 17 18  1  0  0  0
 17 33  1  0  0  0
 18 19  2  0  0  0
 18 34  1  0  0  0
 19 37  1  0  0  0
 20 21  1  0  0  0
 20 35  1  0  0  0
 21 22  2  0  0  0
 21 36  1  0  0  0
 22 23  1  0  0  0
M  CHG  1  37  -1
M  END
> <energy>
64.5633

> <i_ionizer_Ion_state_n>
1

> <i_ionizer_Tot_Q>
-1

> <s_ionizer_Ion_centers>
37

> <s_ionizer_Ion_types>
SM

> <s_ionizer_Ion_ctrs_in>
20

> <r_ionizer_Ionization_penalty>
0.0871646

> <r_ionizer_Ionization_penalty_charging>
0.0871646

> <r_ionizer_Ionization_penalty_neutral>
0

$$$$
ZINC001211854049
                    3D
 Schrodinger Suite 2019-4.
 40 41  0  0  1  0            999 V2000
    3.7218   -0.5102   -1.2597 C   0  0  0  0  0  0
    3.7524   -0.7623    0.2443 C   0  0  0  0  0  0
    2.8142    0.0480    1.1156 C   0  0  0  0  0  0
    1.8536    0.9002    0.5464 C   0  0  0  0  0  0
    0.9821    1.6734    1.3335 C   0  0  0  0  0  0
    0.0396    2.5351    0.7106 N   0  0  0  0  0  0
   -0.8371    2.0563   -0.2941 C   0  0  0  0  0  0
   -0.9869    2.7730   -1.4860 C   0  0  0  0  0  0
   -1.8324    2.2922   -2.4922 C   0  0  0  0  0  0
   -2.5693    1.1281   -2.2821 C   0  0  0  0  0  0
   -3.3479    0.6756   -3.2765 F   0  0  0  0  0  0
   -2.4717    0.4447   -1.0743 C   0  0  0  0  0  0
   -3.3015   -0.7470   -0.8174 C   0  0  0  0  0  0
   -4.5227   -0.6032   -0.8548 O   0  0  0  0  0  0
   -2.6718   -1.9461   -0.4759 N   0  0  0  0  0  0
   -1.2381   -2.1974   -0.5828 C   0  0  0  0  0  0
   -3.4856   -3.0562   -0.0007 C   0  0  0  0  0  0
   -1.6224    0.9185   -0.0700 C   0  0  0  0  0  0
    1.0701    1.5956    2.7233 C   0  0  0  0  0  0
    2.0066    0.7452    3.3145 C   0  0  0  0  0  0
    2.8728   -0.0163    2.5206 C   0  0  0  0  0  0
    4.1267   -1.1093    3.4402 Br  0  0  0  0  0  0
    2.7616   -0.7944   -1.7052 H   0  0  0  0  0  0
    3.9189    0.5402   -1.5021 H   0  0  0  0  0  0
    4.4945   -1.1073   -1.7532 H   0  0  0  0  0  0
    4.7809   -0.5707    0.5728 H   0  0  0  0  0  0
    3.5344   -1.8244    0.4064 H   0  0  0  0  0  0
    1.7739    0.9913   -0.5319 H   0  0  0  0  0  0
   -0.5127    3.0185    1.4197 H   0  0  0  0  0  0
   -0.4211    3.6912   -1.6453 H   0  0  0  0  0  0
   -1.9151    2.8190   -3.4375 H   0  0  0  0  0  0
   -1.0785   -3.1773   -1.0403 H   0  0  0  0  0  0
   -0.7354   -1.4513   -1.2003 H   0  0  0  0  0  0
   -0.8066   -2.1904    0.4224 H   0  0  0  0  0  0
   -3.0977   -3.3828    0.9671 H   0  0  0  0  0  0
   -3.4129   -3.8783   -0.7155 H   0  0  0  0  0  0
   -4.5373   -2.7852    0.1170 H   0  0  0  0  0  0
   -1.5652    0.3940    0.8810 H   0  0  0  0  0  0
    0.4092    2.1782    3.3610 H   0  0  0  0  0  0
    2.0565    0.6916    4.4012 H   0  0  0  0  0  0
  1  2  1  0  0  0
  1 23  1  0  0  0
  1 24  1  0  0  0
  1 25  1  0  0  0
  2  3  1  0  0  0
  2 26  1  0  0  0
  2 27  1  0  0  0
  3  4  2  0  0  0
  3 21  1  0  0  0
  4  5  1  0  0  0
  4 28  1  0  0  0
  5  6  1  0  0  0
  5 19  2  0  0  0
  6  7  1  0  0  0
  6 29  1  0  0  0
  7  8  2  0  0  0
  7 18  1  0  0  0
  8  9  1  0  0  0
  8 30  1  0  0  0
  9 10  2  0  0  0
  9 31  1  0  0  0
 10 11  1  0  0  0
 10 12  1  0  0  0
 12 13  1  0  0  0
 12 18  2  0  0  0
 13 14  2  0  0  0
 13 15  1  0  0  0
 15 16  1  0  0  0
 15 17  1  0  0  0
 16 32  1  0  0  0
 16 33  1  0  0  0
 16 34  1  0  0  0
 17 35  1  0  0  0
 17 36  1  0  0  0
 17 37  1  0  0  0
 18 38  1  0  0  0
 19 20  1  0  0  0
 19 39  1  0  0  0
 20 21  2  0  0  0
 20 40  1  0  0  0
 21 22  1  0  0  0
M  END
> <energy>
33.801

> <i_ionizer_Ion_state_n>
0

> <i_ionizer_Tot_Q>
0

> <s_ionizer_Ion_centers>


> <s_ionizer_Ion_types>


> <s_ionizer_Ion_ctrs_in>


> <r_ionizer_Ionization_penalty>
0

> <r_ionizer_Ionization_penalty_charging>
0

> <r_ionizer_Ionization_penalty_neutral>
0

$$$$
ZINC001211854088
                    3D
 Schrodinger Suite 2019-4.
 38 39  0  0  1  0            999 V2000
    4.8146   -2.3199    0.6809 C   0  0  0  0  0  0
    4.0058   -1.1712    0.3114 N   0  0  0  0  0  0
    4.6613   -0.1733   -0.5171 C   0  0  0  0  0  0
    2.8653   -0.9169    1.0732 C   0  0  0  0  0  0
    2.4434   -1.6669    1.9496 O   0  0  0  0  0  0
    2.0819    0.2956    0.7921 C   0  0  0  0  0  0
    1.1767    0.3115   -0.2761 C   0  0  0  0  0  0
    0.3807    1.4435   -0.4995 C   0  0  0  0  0  0
   -0.5766    1.4497   -1.5511 N   0  0  0  0  0  0
   -1.8912    0.9309   -1.3659 C   0  0  0  0  0  0
   -2.7270    1.3929   -0.3428 C   0  0  0  0  0  0
   -3.9907    0.8240   -0.1365 C   0  0  0  0  0  0
   -4.4348   -0.2260   -0.9435 C   0  0  0  0  0  0
   -6.0195   -1.0023   -0.7003 S   0  0  0  0  0  0
   -5.7805   -1.6983    0.9421 C   0  0  0  0  0  0
   -4.7315   -2.5515    0.9829 F   0  0  0  0  0  0
   -5.5711   -0.7417    1.8767 F   0  0  0  0  0  0
   -6.8767   -2.3966    1.3272 F   0  0  0  0  0  0
   -3.6292   -0.6500   -2.0023 C   0  0  0  0  0  0
   -2.3736   -0.0717   -2.2184 C   0  0  0  0  0  0
    0.4785    2.5326    0.3803 C   0  0  0  0  0  0
    1.3811    2.5073    1.4471 C   0  0  0  0  0  0
    2.1820    1.3878    1.6484 C   0  0  0  0  0  0
    3.0546    1.3885    2.6654 F   0  0  0  0  0  0
    4.2107   -3.1112    1.1286 H   0  0  0  0  0  0
    5.5706   -1.9997    1.4045 H   0  0  0  0  0  0
    5.3084   -2.7181   -0.2116 H   0  0  0  0  0  0
    5.1479   -0.6740   -1.3591 H   0  0  0  0  0  0
    5.4129    0.3431    0.0857 H   0  0  0  0  0  0
    3.9571    0.5578   -0.9099 H   0  0  0  0  0  0
    1.0857   -0.5659   -0.9116 H   0  0  0  0  0  0
   -0.1606    0.9846   -2.3585 H   0  0  0  0  0  0
   -2.4120    2.2093    0.3005 H   0  0  0  0  0  0
   -4.6179    1.2205    0.6613 H   0  0  0  0  0  0
   -3.9625   -1.4448   -2.6643 H   0  0  0  0  0  0
   -1.7671   -0.4374   -3.0416 H   0  0  0  0  0  0
   -0.1501    3.4082    0.2231 H   0  0  0  0  0  0
    1.4536    3.3496    2.1290 H   0  0  0  0  0  0
  1  2  1  0  0  0
  1 25  1  0  0  0
  1 26  1  0  0  0
  1 27  1  0  0  0
  2  3  1  0  0  0
  2  4  1  0  0  0
  3 28  1  0  0  0
  3 29  1  0  0  0
  3 30  1  0  0  0
  4  5  2  0  0  0
  4  6  1  0  0  0
  6  7  2  0  0  0
  6 23  1  0  0  0
  7  8  1  0  0  0
  7 31  1  0  0  0
  8  9  1  0  0  0
  8 21  2  0  0  0
  9 10  1  0  0  0
  9 32  1  0  0  0
 10 11  2  0  0  0
 10 20  1  0  0  0
 11 12  1  0  0  0
 11 33  1  0  0  0
 12 13  2  0  0  0
 12 34  1  0  0  0
 13 14  1  0  0  0
 13 19  1  0  0  0
 14 15  1  0  0  0
 15 16  1  0  0  0
 15 17  1  0  0  0
 15 18  1  0  0  0
 19 20  2  0  0  0
 19 35  1  0  0  0
 20 36  1  0  0  0
 21 22  1  0  0  0
 21 37  1  0  0  0
 22 23  2  0  0  0
 22 38  1  0  0  0
 23 24  1  0  0  0
M  END
> <energy>
28.4454

> <i_ionizer_Ion_state_n>
0

> <i_ionizer_Tot_Q>
0

> <s_ionizer_Ion_centers>


> <s_ionizer_Ion_types>


> <s_ionizer_Ion_ctrs_in>


> <r_ionizer_Ionization_penalty>
0

> <r_ionizer_Ionization_penalty_charging>
0

> <r_ionizer_Ionization_penalty_neutral>
0

$$$$
ZINC001211854128
                    3D
 Schrodinger Suite 2019-4.
 37 38  0  0  1  0            999 V2000
    2.4475   -3.4076   -1.7864 C   0  0  0  0  0  0
    2.4431   -2.2745   -0.8756 N   0  0  0  0  0  0
    2.3692   -2.5938    0.5448 C   0  0  0  0  0  0
    2.2042   -1.0048   -1.4037 C   0  0  0  0  0  0
    2.0763   -0.7632   -2.6026 O   0  0  0  0  0  0
    2.0067    0.1069   -0.4685 C   0  0  0  0  0  0
    0.7004    0.4498   -0.1099 C   0  0  0  0  0  0
    0.4800    1.4535    0.8399 C   0  0  0  0  0  0
   -0.8211    1.7500    1.3251 N   0  0  0  0  0  0
   -1.9894    1.6453    0.5271 C   0  0  0  0  0  0
   -2.1718    2.6028   -0.4865 C   0  0  0  0  0  0
   -3.2818    2.5557   -1.3289 C   0  0  0  0  0  0
   -4.2107    1.5339   -1.1829 C   0  0  0  0  0  0
   -5.5950    1.4753   -2.2001 Cl  0  0  0  0  0  0
   -4.0211    0.5494   -0.2151 C   0  0  0  0  0  0
   -2.9076    0.5866    0.6465 C   0  0  0  0  0  0
   -2.6896   -0.5595    1.5965 C   0  0  0  0  0  0
   -2.0597   -0.1880    2.7479 F   0  0  0  0  0  0
   -3.8427   -1.1726    1.9841 F   0  0  0  0  0  0
   -1.9134   -1.5359    1.0490 F   0  0  0  0  0  0
    1.5815    2.1035    1.4135 C   0  0  0  0  0  0
    2.8846    1.7851    1.0199 C   0  0  0  0  0  0
    3.0920    0.7827    0.0763 C   0  0  0  0  0  0
    4.3474    0.4540   -0.2565 F   0  0  0  0  0  0
    2.5742   -3.0953   -2.8245 H   0  0  0  0  0  0
    1.4935   -3.9358   -1.6912 H   0  0  0  0  0  0
    3.2667   -4.0818   -1.5194 H   0  0  0  0  0  0
    3.0603   -3.4115    0.7635 H   0  0  0  0  0  0
    1.3446   -2.9021    0.7766 H   0  0  0  0  0  0
    2.6325   -1.7453    1.1797 H   0  0  0  0  0  0
   -0.1269   -0.0962   -0.5566 H   0  0  0  0  0  0
   -0.9368    1.3009    2.2389 H   0  0  0  0  0  0
   -1.4421    3.4016   -0.6064 H   0  0  0  0  0  0
   -3.4134    3.3161   -2.0925 H   0  0  0  0  0  0
   -4.7371   -0.2660   -0.1325 H   0  0  0  0  0  0
    1.4205    2.8785    2.1583 H   0  0  0  0  0  0
    3.7351    2.3021    1.4521 H   0  0  0  0  0  0
  1  2  1  0  0  0
  1 25  1  0  0  0
  1 26  1  0  0  0
  1 27  1  0  0  0
  2  3  1  0  0  0
  2  4  1  0  0  0
  3 28  1  0  0  0
  3 29  1  0  0  0
  3 30  1  0  0  0
  4  5  2  0  0  0
  4  6  1  0  0  0
  6  7  2  0  0  0
  6 23  1  0  0  0
  7  8  1  0  0  0
  7 31  1  0  0  0
  8  9  1  0  0  0
  8 21  2  0  0  0
  9 10  1  0  0  0
  9 32  1  0  0  0
 10 11  2  0  0  0
 10 16  1  0  0  0
 11 12  1  0  0  0
 11 33  1  0  0  0
 12 13  2  0  0  0
 12 34  1  0  0  0
 13 14  1  0  0  0
 13 15  1  0  0  0
 15 16  2  0  0  0
 15 35  1  0  0  0
 16 17  1  0  0  0
 17 18  1  0  0  0
 17 19  1  0  0  0
 17 20  1  0  0  0
 21 22  1  0  0  0
 21 36  1  0  0  0
 22 23  2  0  0  0
 22 37  1  0  0  0
 23 24  1  0  0  0
M  END
> <energy>
45.8134

> <i_ionizer_Ion_state_n>
0

> <i_ionizer_Tot_Q>
0

> <s_ionizer_Ion_centers>


> <s_ionizer_Ion_types>


> <s_ionizer_Ion_ctrs_in>


> <r_ionizer_Ionization_penalty>
0

> <r_ionizer_Ionization_penalty_charging>
0

> <r_ionizer_Ionization_penalty_neutral>
0

$$$$
ZINC001211854177
                    3D
 Schrodinger Suite 2019-4.
 44 46  0  0  1  0            999 V2000
    2.0888   -1.7845    0.2047 C   0  0  0  0  0  0
    3.2750   -1.6543   -0.6351 N   0  0  0  0  0  0
    3.6071   -2.8026   -1.4665 C   0  0  0  0  0  0
    3.9540   -0.4506   -0.8564 C   0  0  0  0  0  0
    4.9140   -0.3218   -1.6059 O   0  0  0  0  0  0
    3.3985    0.7648   -0.2452 C   0  0  0  0  0  0
    2.3426    1.4015   -0.9052 C   0  0  0  0  0  0
    1.6705    2.4620   -0.2848 C   0  0  0  0  0  0
    0.4348    2.9415   -0.8240 N   0  0  0  0  0  0
   -0.7251    2.1309   -0.5989 C   0  0  0  0  0  0
   -1.4401    2.2592    0.5948 C   0  0  0  0  0  0
   -2.4377    1.3332    0.9302 C   0  0  0  0  0  0
   -2.7232    0.2317    0.1062 C   0  0  0  0  0  0
   -3.7020   -0.8648    0.5298 C   0  0  0  0  0  0
   -3.1689   -1.7969    1.5862 C   0  0  0  0  0  0
   -2.9420   -1.1414    2.7517 F   0  0  0  0  0  0
   -2.0027   -2.3667    1.1944 F   0  0  0  0  0  0
   -4.0402   -2.8027    1.8436 F   0  0  0  0  0  0
   -5.1954   -0.5539    0.5385 C   0  0  0  0  0  0
   -4.6377   -1.4268   -0.5438 C   0  0  0  0  0  0
   -2.0182    0.1412   -1.1088 C   0  0  0  0  0  0
   -1.0407    1.0760   -1.4615 C   0  0  0  0  0  0
    2.1014    2.8965    0.9773 C   0  0  0  0  0  0
    3.2027    2.2953    1.6020 C   0  0  0  0  0  0
    3.8422    1.2198    0.9902 C   0  0  0  0  0  0
    4.8430    0.6058    1.6348 F   0  0  0  0  0  0
    2.0857   -1.0531    1.0171 H   0  0  0  0  0  0
    1.1937   -1.6331   -0.4069 H   0  0  0  0  0  0
    2.0679   -2.7841    0.6494 H   0  0  0  0  0  0
    2.8061   -2.9568   -2.1972 H   0  0  0  0  0  0
    3.6873   -3.6921   -0.8342 H   0  0  0  0  0  0
    4.5482   -2.6635   -2.0096 H   0  0  0  0  0  0
    2.0108    1.0159   -1.8642 H   0  0  0  0  0  0
    0.5597    2.9850   -1.8386 H   0  0  0  0  0  0
   -1.1967    3.0669    1.2770 H   0  0  0  0  0  0
   -2.9573    1.4535    1.8797 H   0  0  0  0  0  0
   -5.8214   -1.0281    1.2890 H   0  0  0  0  0  0
   -5.5275    0.4416    0.2649 H   0  0  0  0  0  0
   -4.8471   -2.4936   -0.5242 H   0  0  0  0  0  0
   -4.6107   -1.0134   -1.5479 H   0  0  0  0  0  0
   -2.1978   -0.6978   -1.7793 H   0  0  0  0  0  0
   -0.4949    0.9373   -2.3898 H   0  0  0  0  0  0
    1.5636    3.6936    1.4844 H   0  0  0  0  0  0
    3.5296    2.6293    2.5821 H   0  0  0  0  0  0
  1  2  1  0  0  0
  1 27  1  0  0  0
  1 28  1  0  0  0
  1 29  1  0  0  0
  2  3  1  0  0  0
  2  4  1  0  0  0
  3 30  1  0  0  0
  3 31  1  0  0  0
  3 32  1  0  0  0
  4  5  2  0  0  0
  4  6  1  0  0  0
  6  7  2  0  0  0
  6 25  1  0  0  0
  7  8  1  0  0  0
  7 33  1  0  0  0
  8  9  1  0  0  0
  8 23  2  0  0  0
  9 10  1  0  0  0
  9 34  1  0  0  0
 10 11  2  0  0  0
 10 22  1  0  0  0
 11 12  1  0  0  0
 11 35  1  0  0  0
 12 13  2  0  0  0
 12 36  1  0  0  0
 13 14  1  0  0  0
 13 21  1  0  0  0
 14 15  1  0  0  0
 14 19  1  0  0  0
 14 20  1  0  0  0
 15 16  1  0  0  0
 15 17  1  0  0  0
 15 18  1  0  0  0
 19 20  1  0  0  0
 19 37  1  0  0  0
 19 38  1  0  0  0
 20 39  1  0  0  0
 20 40  1  0  0  0
 21 22  2  0  0  0
 21 41  1  0  0  0
 22 42  1  0  0  0
 23 24  1  0  0  0
 23 43  1  0  0  0
 24 25  2  0  0  0
 24 44  1  0  0  0
 25 26  1  0  0  0
M  END
> <energy>
83.2365

> <i_ionizer_Ion_state_n>
0

> <i_ionizer_Tot_Q>
0

> <s_ionizer_Ion_centers>


> <s_ionizer_Ion_types>


> <s_ionizer_Ion_ctrs_in>


> <r_ionizer_Ionization_penalty>
0

> <r_ionizer_Ionization_penalty_charging>
0

> <r_ionizer_Ionization_penalty_neutral>
0

$$$$
ZINC001211854304
                    3D
 Schrodinger Suite 2019-4.
 48 50  0  0  1  0            999 V2000
   -3.8492    2.9847   -1.2033 C   0  0  0  0  0  0
   -2.5419    2.4278   -1.2894 O   0  0  0  0  0  0
   -2.5020    1.1544   -0.7728 C   0  0  0  0  0  0
   -3.0185    0.0914   -1.5139 C   0  0  0  0  0  0
   -2.8375   -1.2208   -1.0687 C   0  0  0  0  0  0
   -2.1350   -1.4850    0.1181 C   0  0  0  0  0  0
   -1.8578   -2.8625    0.5323 C   0  0  0  0  0  0
   -2.7414   -3.5536    1.3729 C   0  0  0  0  0  0
   -2.4530   -4.8550    1.7948 C   0  0  0  0  0  0
   -1.2812   -5.4843    1.3805 C   0  0  0  0  0  0
   -0.4033   -4.8158    0.5307 C   0  0  0  0  0  0
   -0.6899   -3.5155    0.1083 C   0  0  0  0  0  0
   -1.6453   -0.4031    0.8696 C   0  0  0  0  0  0
   -1.8222    0.9215    0.4362 C   0  0  0  0  0  0
   -1.1670    1.9839    1.1197 N   0  0  0  0  0  0
    0.1253    2.4523    0.7575 C   0  0  0  0  0  0
    0.6206    3.6267    1.3417 C   0  0  0  0  0  0
    1.8955    4.1025    1.0142 C   0  0  0  0  0  0
    2.6902    3.3965    0.1129 C   0  0  0  0  0  0
    3.9237    3.8437   -0.1569 F   0  0  0  0  0  0
    2.2119    2.2291   -0.4630 C   0  0  0  0  0  0
    3.0301    1.4431   -1.3956 C   0  0  0  0  0  0
    2.8509    1.6266   -2.5932 O   0  0  0  0  0  0
    3.8919    0.4784   -0.8704 N   0  0  0  0  0  0
    4.4733   -0.4896   -1.7879 C   0  0  0  0  0  0
    4.0732    0.2205    0.5507 C   0  0  0  0  0  0
    0.9279    1.7686   -0.1658 C   0  0  0  0  0  0
   -4.5244    2.5082   -1.9209 H   0  0  0  0  0  0
   -4.2556    2.9206   -0.1872 H   0  0  0  0  0  0
   -3.7718    4.0424   -1.4694 H   0  0  0  0  0  0
   -3.5146    0.2740   -2.4616 H   0  0  0  0  0  0
   -3.2052   -2.0440   -1.6799 H   0  0  0  0  0  0
   -3.6620   -3.0791    1.7078 H   0  0  0  0  0  0
   -3.1458   -5.3789    2.4501 H   0  0  0  0  0  0
   -1.0538   -6.4908    1.7195 H   0  0  0  0  0  0
    0.5080   -5.3061    0.1956 H   0  0  0  0  0  0
    0.0072   -3.0064   -0.5544 H   0  0  0  0  0  0
   -1.0558   -0.6014    1.7632 H   0  0  0  0  0  0
   -1.1848    1.8218    2.1250 H   0  0  0  0  0  0
    0.0034    4.1885    2.0396 H   0  0  0  0  0  0
    2.2762    5.0158    1.4633 H   0  0  0  0  0  0
    5.5455   -0.5736   -1.5919 H   0  0  0  0  0  0
    4.3312   -0.2035   -2.8340 H   0  0  0  0  0  0
    3.9895   -1.4569   -1.6245 H   0  0  0  0  0  0
    3.8856    1.1126    1.1540 H   0  0  0  0  0  0
    5.1033   -0.1016    0.7353 H   0  0  0  0  0  0
    3.3807   -0.5690    0.8595 H   0  0  0  0  0  0
    0.5737    0.8611   -0.6482 H   0  0  0  0  0  0
  1  2  1  0  0  0
  1 28  1  0  0  0
  1 29  1  0  0  0
  1 30  1  0  0  0
  2  3  1  0  0  0
  3  4  2  0  0  0
  3 14  1  0  0  0
  4  5  1  0  0  0
  4 31  1  0  0  0
  5  6  2  0  0  0
  5 32  1  0  0  0
  6  7  1  0  0  0
  6 13  1  0  0  0
  7  8  2  0  0  0
  7 12  1  0  0  0
  8  9  1  0  0  0
  8 33  1  0  0  0
  9 10  2  0  0  0
  9 34  1  0  0  0
 10 11  1  0  0  0
 10 35  1  0  0  0
 11 12  2  0  0  0
 11 36  1  0  0  0
 12 37  1  0  0  0
 13 14  2  0  0  0
 13 38  1  0  0  0
 14 15  1  0  0  0
 15 16  1  0  0  0
 15 39  1  0  0  0
 16 17  2  0  0  0
 16 27  1  0  0  0
 17 18  1  0  0  0
 17 40  1  0  0  0
 18 19  2  0  0  0
 18 41  1  0  0  0
 19 20  1  0  0  0
 19 21  1  0  0  0
 21 22  1  0  0  0
 21 27  2  0  0  0
 22 23  2  0  0  0
 22 24  1  0  0  0
 24 25  1  0  0  0
 24 26  1  0  0  0
 25 42  1  0  0  0
 25 43  1  0  0  0
 25 44  1  0  0  0
 26 45  1  0  0  0
 26 46  1  0  0  0
 26 47  1  0  0  0
 27 48  1  0  0  0
M  END
> <energy>
75.5403

> <i_ionizer_Ion_state_n>
0

> <i_ionizer_Tot_Q>
0

> <s_ionizer_Ion_centers>


> <s_ionizer_Ion_types>


> <s_ionizer_Ion_ctrs_in>


> <r_ionizer_Ionization_penalty>
0

> <r_ionizer_Ionization_penalty_charging>
0

> <r_ionizer_Ionization_penalty_neutral>
0

$$$$
ZINC001211854305
                    3D
 Schrodinger Suite 2019-4.
 37 38  0  0  1  0            999 V2000
   -2.2847    1.0648    0.5355 C   0  0  0  0  0  0
   -2.2814    2.1840   -0.3956 N   0  0  0  0  0  0
   -3.5443    2.4784   -1.0515 C   0  0  0  0  0  0
   -1.1632    2.9517   -0.7252 C   0  0  0  0  0  0
   -1.2038    3.9434   -1.4460 O   0  0  0  0  0  0
    0.1579    2.5201   -0.2353 C   0  0  0  0  0  0
    0.6625    1.2669   -0.6056 C   0  0  0  0  0  0
    1.9242    0.8489   -0.1686 C   0  0  0  0  0  0
    2.4493   -0.4194   -0.5302 N   0  0  0  0  0  0
    1.6477   -1.5940   -0.5504 C   0  0  0  0  0  0
    1.3471   -2.2215    0.6696 C   0  0  0  0  0  0
    0.5351   -3.3644    0.7203 C   0  0  0  0  0  0
    0.1827   -3.9928    2.0450 C   0  0  0  0  0  0
    1.0104   -3.6131    3.0566 F   0  0  0  0  0  0
   -1.0722   -3.6566    2.4483 F   0  0  0  0  0  0
    0.2215   -5.3518    2.0161 F   0  0  0  0  0  0
    0.0106   -3.8794   -0.4736 C   0  0  0  0  0  0
    0.2915   -3.2604   -1.6936 C   0  0  0  0  0  0
    1.0976   -2.1193   -1.7335 C   0  0  0  0  0  0
    1.3818   -1.3858   -3.2704 Cl  0  0  0  0  0  0
    2.7046    1.7414    0.5819 C   0  0  0  0  0  0
    2.2022    2.9954    0.9483 C   0  0  0  0  0  0
    0.9280    3.3794    0.5391 C   0  0  0  0  0  0
    0.4661    4.5783    0.9171 F   0  0  0  0  0  0
   -1.4154    1.0767    1.1975 H   0  0  0  0  0  0
   -2.2975    0.1336   -0.0393 H   0  0  0  0  0  0
   -3.1824    1.1191    1.1579 H   0  0  0  0  0  0
   -4.2980    2.6951   -0.2892 H   0  0  0  0  0  0
   -3.8518    1.6001   -1.6260 H   0  0  0  0  0  0
   -3.4738    3.3335   -1.7277 H   0  0  0  0  0  0
    0.0650    0.6298   -1.2514 H   0  0  0  0  0  0
    3.2889   -0.6031    0.0168 H   0  0  0  0  0  0
    1.7369   -1.8022    1.5972 H   0  0  0  0  0  0
   -0.6263   -4.7622   -0.4589 H   0  0  0  0  0  0
   -0.1311   -3.6633   -2.6122 H   0  0  0  0  0  0
    3.7107    1.4688    0.8955 H   0  0  0  0  0  0
    2.8036    3.6802    1.5413 H   0  0  0  0  0  0
  1  2  1  0  0  0
  1 25  1  0  0  0
  1 26  1  0  0  0
  1 27  1  0  0  0
  2  3  1  0  0  0
  2  4  1  0  0  0
  3 28  1  0  0  0
  3 29  1  0  0  0
  3 30  1  0  0  0
  4  5  2  0  0  0
  4  6  1  0  0  0
  6  7  2  0  0  0
  6 23  1  0  0  0
  7  8  1  0  0  0
  7 31  1  0  0  0
  8  9  1  0  0  0
  8 21  2  0  0  0
  9 10  1  0  0  0
  9 32  1  0  0  0
 10 11  2  0  0  0
 10 19  1  0  0  0
 11 12  1  0  0  0
 11 33  1  0  0  0
 12 13  1  0  0  0
 12 17  2  0  0  0
 13 14  1  0  0  0
 13 15  1  0  0  0
 13 16  1  0  0  0
 17 18  1  0  0  0
 17 34  1  0  0  0
 18 19  2  0  0  0
 18 35  1  0  0  0
 19 20  1  0  0  0
 21 22  1  0  0  0
 21 36  1  0  0  0
 22 23  2  0  0  0
 22 37  1  0  0  0
 23 24  1  0  0  0
M  END
> <energy>
72.0205

> <i_ionizer_Ion_state_n>
0

> <i_ionizer_Tot_Q>
0

> <s_ionizer_Ion_centers>


> <s_ionizer_Ion_types>


> <s_ionizer_Ion_ctrs_in>


> <r_ionizer_Ionization_penalty>
0

> <r_ionizer_Ionization_penalty_charging>
0

> <r_ionizer_Ionization_penalty_neutral>
0

$$$$
ZINC001211854316
                    3D
 Schrodinger Suite 2019-4.
 37 38  0  0  1  0            999 V2000
    2.4481   -3.5001    1.6935 C   0  0  0  0  0  0
    2.5873   -2.2532    0.9636 N   0  0  0  0  0  0
    2.8034   -2.3720   -0.4696 C   0  0  0  0  0  0
    2.2606   -1.0653    1.6123 C   0  0  0  0  0  0
    1.9272   -0.9870    2.7932 O   0  0  0  0  0  0
    2.2243    0.1735    0.8279 C   0  0  0  0  0  0
    1.0004    0.5922    0.2981 C   0  0  0  0  0  0
    0.9199    1.7725   -0.4495 C   0  0  0  0  0  0
   -0.2799    2.2288   -1.0463 N   0  0  0  0  0  0
   -1.5610    1.6341   -0.9363 C   0  0  0  0  0  0
   -1.7642    0.3025   -1.3245 C   0  0  0  0  0  0
   -2.9964   -0.3235   -1.1247 C   0  0  0  0  0  0
   -4.0637    0.3738   -0.5405 C   0  0  0  0  0  0
   -5.3881   -0.3191   -0.3371 C   0  0  0  0  0  0
   -6.0152   -0.5887   -1.5149 F   0  0  0  0  0  0
   -6.2733    0.4037    0.4012 F   0  0  0  0  0  0
   -5.2602   -1.5166    0.2999 F   0  0  0  0  0  0
   -3.8773    1.7149   -0.1775 C   0  0  0  0  0  0
   -2.6411    2.3363   -0.3732 C   0  0  0  0  0  0
   -2.4662    3.9898    0.1066 Cl  0  0  0  0  0  0
    2.0968    2.5103   -0.6591 C   0  0  0  0  0  0
    3.3138    2.1038   -0.1008 C   0  0  0  0  0  0
    3.3721    0.9343    0.6478 C   0  0  0  0  0  0
    4.5441    0.5536    1.1746 F   0  0  0  0  0  0
    1.5559   -4.0209    1.3320 H   0  0  0  0  0  0
    3.3317   -4.1161    1.5098 H   0  0  0  0  0  0
    2.3521   -3.3385    2.7700 H   0  0  0  0  0  0
    3.1481   -1.4356   -0.9076 H   0  0  0  0  0  0
    1.8588   -2.6601   -0.9393 H   0  0  0  0  0  0
    3.5589   -3.1385   -0.6578 H   0  0  0  0  0  0
    0.1216   -0.0076    0.5104 H   0  0  0  0  0  0
   -0.3473    3.2446   -0.9564 H   0  0  0  0  0  0
   -0.9533   -0.2591   -1.7849 H   0  0  0  0  0  0
   -3.1195   -1.3651   -1.4205 H   0  0  0  0  0  0
   -4.6974    2.2741    0.2683 H   0  0  0  0  0  0
    2.0691    3.4240   -1.2486 H   0  0  0  0  0  0
    4.2096    2.7001   -0.2398 H   0  0  0  0  0  0
  1  2  1  0  0  0
  1 25  1  0  0  0
  1 26  1  0  0  0
  1 27  1  0  0  0
  2  3  1  0  0  0
  2  4  1  0  0  0
  3 28  1  0  0  0
  3 29  1  0  0  0
  3 30  1  0  0  0
  4  5  2  0  0  0
  4  6  1  0  0  0
  6  7  2  0  0  0
  6 23  1  0  0  0
  7  8  1  0  0  0
  7 31  1  0  0  0
  8  9  1  0  0  0
  8 21  2  0  0  0
  9 10  1  0  0  0
  9 32  1  0  0  0
 10 11  2  0  0  0
 10 19  1  0  0  0
 11 12  1  0  0  0
 11 33  1  0  0  0
 12 13  2  0  0  0
 12 34  1  0  0  0
 13 14  1  0  0  0
 13 18  1  0  0  0
 14 15  1  0  0  0
 14 16  1  0  0  0
 14 17  1  0  0  0
 18 19  2  0  0  0
 18 35  1  0  0  0
 19 20  1  0  0  0
 21 22  1  0  0  0
 21 36  1  0  0  0
 22 23  2  0  0  0
 22 37  1  0  0  0
 23 24  1  0  0  0
M  END
> <energy>
64.6267

> <i_ionizer_Ion_state_n>
0

> <i_ionizer_Tot_Q>
0

> <s_ionizer_Ion_centers>


> <s_ionizer_Ion_types>


> <s_ionizer_Ion_ctrs_in>


> <r_ionizer_Ionization_penalty>
0

> <r_ionizer_Ionization_penalty_charging>
0

> <r_ionizer_Ionization_penalty_neutral>
0

$$$$
ZINC001211854336
                    3D
 Schrodinger Suite 2019-4.
 34 35  0  0  1  0            999 V2000
    3.2727   -0.2240   -0.9227 C   0  0  0  0  0  0
    3.1899   -0.2013    0.5327 N   0  0  0  0  0  0
    4.3379   -0.7359    1.2498 C   0  0  0  0  0  0
    2.2737    0.5757    1.2455 C   0  0  0  0  0  0
    2.2726    0.7030    2.4633 O   0  0  0  0  0  0
    1.2225    1.2653    0.4866 C   0  0  0  0  0  0
    0.0604    0.5790    0.1177 C   0  0  0  0  0  0
   -0.8999    1.2177   -0.6768 C   0  0  0  0  0  0
   -2.0087    0.5225   -1.2229 N   0  0  0  0  0  0
   -2.7101   -0.5284   -0.5739 C   0  0  0  0  0  0
   -3.1965   -0.3366    0.7287 C   0  0  0  0  0  0
   -3.8764   -1.3617    1.3838 C   0  0  0  0  0  0
   -4.4797   -1.1088    2.9745 Cl  0  0  0  0  0  0
   -4.0729   -2.5918    0.7588 C   0  0  0  0  0  0
   -3.6145   -2.7933   -0.5441 C   0  0  0  0  0  0
   -2.9514   -1.7604   -1.2093 C   0  0  0  0  0  0
   -2.3597   -2.0773   -2.9882 Br  0  0  0  0  0  0
   -0.6754    2.5402   -1.0868 C   0  0  0  0  0  0
    0.4687    3.2315   -0.6800 C   0  0  0  0  0  0
    1.4181    2.5877    0.1059 C   0  0  0  0  0  0
    2.5339    3.2467    0.4463 F   0  0  0  0  0  0
    3.6633   -1.1922   -1.2484 H   0  0  0  0  0  0
    2.2975   -0.0786   -1.3909 H   0  0  0  0  0  0
    3.9475    0.5748   -1.2451 H   0  0  0  0  0  0
    5.2009   -0.0910    1.0590 H   0  0  0  0  0  0
    4.1665   -0.7773    2.3275 H   0  0  0  0  0  0
    4.5529   -1.7460    0.8869 H   0  0  0  0  0  0
   -0.0643   -0.4573    0.4195 H   0  0  0  0  0  0
   -1.7771    0.2396   -2.1781 H   0  0  0  0  0  0
   -3.0494    0.6216    1.2235 H   0  0  0  0  0  0
   -4.5874   -3.3955    1.2794 H   0  0  0  0  0  0
   -3.7748   -3.7536   -1.0262 H   0  0  0  0  0  0
   -1.4103    3.0427   -1.7142 H   0  0  0  0  0  0
    0.6293    4.2630   -0.9818 H   0  0  0  0  0  0
  1  2  1  0  0  0
  1 22  1  0  0  0
  1 23  1  0  0  0
  1 24  1  0  0  0
  2  3  1  0  0  0
  2  4  1  0  0  0
  3 25  1  0  0  0
  3 26  1  0  0  0
  3 27  1  0  0  0
  4  5  2  0  0  0
  4  6  1  0  0  0
  6  7  2  0  0  0
  6 20  1  0  0  0
  7  8  1  0  0  0
  7 28  1  0  0  0
  8  9  1  0  0  0
  8 18  2  0  0  0
  9 10  1  0  0  0
  9 29  1  0  0  0
 10 11  2  0  0  0
 10 16  1  0  0  0
 11 12  1  0  0  0
 11 30  1  0  0  0
 12 13  1  0  0  0
 12 14  2  0  0  0
 14 15  1  0  0  0
 14 31  1  0  0  0
 15 16  2  0  0  0
 15 32  1  0  0  0
 16 17  1  0  0  0
 18 19  1  0  0  0
 18 33  1  0  0  0
 19 20  2  0  0  0
 19 34  1  0  0  0
 20 21  1  0  0  0
M  END
> <energy>
37.4487

> <i_ionizer_Ion_state_n>
0

> <i_ionizer_Tot_Q>
0

> <s_ionizer_Ion_centers>


> <s_ionizer_Ion_types>


> <s_ionizer_Ion_ctrs_in>


> <r_ionizer_Ionization_penalty>
0

> <r_ionizer_Ionization_penalty_charging>
0

> <r_ionizer_Ionization_penalty_neutral>
0

$$$$
ZINC001211854382
                    3D
 Schrodinger Suite 2019-4.
 37 38  0  0  1  0            999 V2000
    4.9201   -1.3299    1.0669 C   0  0  0  0  0  0
    4.1012   -0.2652    0.5090 N   0  0  0  0  0  0
    4.5472    0.2942   -0.7567 C   0  0  0  0  0  0
    2.8245   -0.0776    1.0355 C   0  0  0  0  0  0
    2.3898   -0.6766    2.0148 O   0  0  0  0  0  0
    1.8880    0.8124    0.3349 C   0  0  0  0  0  0
    0.9058    0.2357   -0.4793 C   0  0  0  0  0  0
   -0.0516    1.0461   -1.1034 C   0  0  0  0  0  0
   -1.1006    0.4594   -1.8701 N   0  0  0  0  0  0
   -2.2233   -0.0991   -1.1895 C   0  0  0  0  0  0
   -2.2724   -1.4656   -0.8967 C   0  0  0  0  0  0
   -3.3064   -1.9845   -0.1116 C   0  0  0  0  0  0
   -4.3178   -1.1488    0.3947 C   0  0  0  0  0  0
   -5.3994   -1.7188    1.2723 C   0  0  0  0  0  0
   -5.2312   -3.0504    1.5303 F   0  0  0  0  0  0
   -5.4630   -1.1223    2.4946 F   0  0  0  0  0  0
   -6.6420   -1.6180    0.7270 F   0  0  0  0  0  0
   -4.2774    0.2130    0.0719 C   0  0  0  0  0  0
   -5.5020    1.3117    0.5976 Cl  0  0  0  0  0  0
   -3.2301    0.7359   -0.6958 C   0  0  0  0  0  0
   -0.0361    2.4275   -0.8690 C   0  0  0  0  0  0
    0.9509    2.9984   -0.0558 C   0  0  0  0  0  0
    1.9083    2.1855    0.5458 C   0  0  0  0  0  0
    2.8418    2.7479    1.3257 F   0  0  0  0  0  0
    4.8767   -2.1944    0.3971 H   0  0  0  0  0  0
    5.9552   -0.9862    1.1476 H   0  0  0  0  0  0
    4.5754   -1.6385    2.0576 H   0  0  0  0  0  0
    5.6270    0.4643   -0.7197 H   0  0  0  0  0  0
    4.0568    1.2447   -0.9773 H   0  0  0  0  0  0
    4.3134   -0.4158   -1.5551 H   0  0  0  0  0  0
    0.8738   -0.8441   -0.5917 H   0  0  0  0  0  0
   -0.6832   -0.2904   -2.4240 H   0  0  0  0  0  0
   -1.4882   -2.1344   -1.2441 H   0  0  0  0  0  0
   -3.3079   -3.0512    0.1196 H   0  0  0  0  0  0
   -3.1922    1.8004   -0.9119 H   0  0  0  0  0  0
   -0.7991    3.0651   -1.3122 H   0  0  0  0  0  0
    0.9681    4.0696    0.1208 H   0  0  0  0  0  0
  1  2  1  0  0  0
  1 25  1  0  0  0
  1 26  1  0  0  0
  1 27  1  0  0  0
  2  3  1  0  0  0
  2  4  1  0  0  0
  3 28  1  0  0  0
  3 29  1  0  0  0
  3 30  1  0  0  0
  4  5  2  0  0  0
  4  6  1  0  0  0
  6  7  2  0  0  0
  6 23  1  0  0  0
  7  8  1  0  0  0
  7 31  1  0  0  0
  8  9  1  0  0  0
  8 21  2  0  0  0
  9 10  1  0  0  0
  9 32  1  0  0  0
 10 11  2  0  0  0
 10 20  1  0  0  0
 11 12  1  0  0  0
 11 33  1  0  0  0
 12 13  2  0  0  0
 12 34  1  0  0  0
 13 14  1  0  0  0
 13 18  1  0  0  0
 14 15  1  0  0  0
 14 16  1  0  0  0
 14 17  1  0  0  0
 18 19  1  0  0  0
 18 20  2  0  0  0
 20 35  1  0  0  0
 21 22  1  0  0  0
 21 36  1  0  0  0
 22 23  2  0  0  0
 22 37  1  0  0  0
 23 24  1  0  0  0
M  END
> <energy>
38.1924

> <i_ionizer_Ion_state_n>
0

> <i_ionizer_Tot_Q>
0

> <s_ionizer_Ion_centers>


> <s_ionizer_Ion_types>


> <s_ionizer_Ion_ctrs_in>


> <r_ionizer_Ionization_penalty>
0

> <r_ionizer_Ionization_penalty_charging>
0

> <r_ionizer_Ionization_penalty_neutral>
0

$$$$
ZINC001211854455
                    3D
 Schrodinger Suite 2019-4.
 38 39  0  0  1  0            999 V2000
    2.7220   -1.7408   -0.2288 C   0  0  0  0  0  0
    2.4940   -1.1641   -1.5429 N   0  0  0  0  0  0
    2.3829   -2.1045   -2.6441 C   0  0  0  0  0  0
    2.1836    0.1755   -1.7693 C   0  0  0  0  0  0
    1.9766    0.6639   -2.8776 O   0  0  0  0  0  0
    2.0179    1.0526   -0.6041 C   0  0  0  0  0  0
    0.7997    1.0304    0.0825 C   0  0  0  0  0  0
    0.6112    1.8347    1.2135 C   0  0  0  0  0  0
   -0.6042    1.8545    1.9416 N   0  0  0  0  0  0
   -1.6698    0.9429    1.7713 C   0  0  0  0  0  0
   -1.8390   -0.1106    2.6744 C   0  0  0  0  0  0
   -2.8237   -1.0747    2.4563 C   0  0  0  0  0  0
   -3.6510   -0.9896    1.3339 C   0  0  0  0  0  0
   -3.4887    0.0565    0.4193 C   0  0  0  0  0  0
   -4.5665    0.2274   -0.9871 S   0  0  0  0  0  0
   -3.8952   -1.0729   -2.0222 C   0  0  0  0  0  0
   -2.5571   -0.9528   -2.1812 F   0  0  0  0  0  0
   -4.1372   -2.2984   -1.4973 F   0  0  0  0  0  0
   -4.4508   -1.0517   -3.2585 F   0  0  0  0  0  0
   -2.4930    1.0129    0.6402 C   0  0  0  0  0  0
    1.6414    2.7143    1.5874 C   0  0  0  0  0  0
    2.8544    2.7398    0.8885 C   0  0  0  0  0  0
    3.0391    1.9045   -0.2086 C   0  0  0  0  0  0
    4.2143    1.9197   -0.8510 F   0  0  0  0  0  0
    3.4560   -2.5468   -0.3106 H   0  0  0  0  0  0
    3.1067   -1.0011    0.4752 H   0  0  0  0  0  0
    1.7767   -2.1426    0.1470 H   0  0  0  0  0  0
    3.2814   -2.7292   -2.6715 H   0  0  0  0  0  0
    1.5066   -2.7395   -2.4713 H   0  0  0  0  0  0
    2.2699   -1.6036   -3.6083 H   0  0  0  0  0  0
    0.0191    0.3610   -0.2671 H   0  0  0  0  0  0
   -0.4195    2.0319    2.9260 H   0  0  0  0  0  0
   -1.1919   -0.2005    3.5430 H   0  0  0  0  0  0
   -2.9516   -1.8901    3.1647 H   0  0  0  0  0  0
   -4.4213   -1.7436    1.1871 H   0  0  0  0  0  0
   -2.3496    1.8288   -0.0650 H   0  0  0  0  0  0
    1.5072    3.3914    2.4288 H   0  0  0  0  0  0
    3.6496    3.4147    1.1859 H   0  0  0  0  0  0
  1  2  1  0  0  0
  1 25  1  0  0  0
  1 26  1  0  0  0
  1 27  1  0  0  0
  2  3  1  0  0  0
  2  4  1  0  0  0
  3 28  1  0  0  0
  3 29  1  0  0  0
  3 30  1  0  0  0
  4  5  2  0  0  0
  4  6  1  0  0  0
  6  7  2  0  0  0
  6 23  1  0  0  0
  7  8  1  0  0  0
  7 31  1  0  0  0
  8  9  1  0  0  0
  8 21  2  0  0  0
  9 10  1  0  0  0
  9 32  1  0  0  0
 10 11  2  0  0  0
 10 20  1  0  0  0
 11 12  1  0  0  0
 11 33  1  0  0  0
 12 13  2  0  0  0
 12 34  1  0  0  0
 13 14  1  0  0  0
 13 35  1  0  0  0
 14 15  1  0  0  0
 14 20  2  0  0  0
 15 16  1  0  0  0
 16 17  1  0  0  0
 16 18  1  0  0  0
 16 19  1  0  0  0
 20 36  1  0  0  0
 21 22  1  0  0  0
 21 37  1  0  0  0
 22 23  2  0  0  0
 22 38  1  0  0  0
 23 24  1  0  0  0
M  END
> <energy>
25.1816

> <i_ionizer_Ion_state_n>
0

> <i_ionizer_Tot_Q>
0

> <s_ionizer_Ion_centers>


> <s_ionizer_Ion_types>


> <s_ionizer_Ion_ctrs_in>


> <r_ionizer_Ionization_penalty>
0

> <r_ionizer_Ionization_penalty_charging>
0

> <r_ionizer_Ionization_penalty_neutral>
0

$$$$
ZINC001211854473
                    3D
 Schrodinger Suite 2019-4.
 43 45  0  0  1  0            999 V2000
    7.0331   -2.1529   -0.1046 C   0  0  0  0  0  0
    5.6789   -1.5582    0.0767 C   0  0  0  0  0  0
    4.8277   -1.3380   -0.9044 N   0  0  0  0  0  0
    3.6694   -0.7460   -0.4135 C   0  0  0  0  0  0
    2.5798   -0.3441   -1.3043 C   0  0  0  0  0  0
    2.5178   -0.8390   -2.6140 C   0  0  0  0  0  0
    1.5125   -0.4192   -3.4928 C   0  0  0  0  0  0
    0.5554    0.5030   -3.0732 C   0  0  0  0  0  0
    0.5712    0.9797   -1.7633 C   0  0  0  0  0  0
   -0.3517    1.9855   -1.3755 N   0  0  0  0  0  0
   -1.0860    1.9380   -0.1615 C   0  0  0  0  0  0
   -1.2998    3.1087    0.5827 C   0  0  0  0  0  0
   -2.0561    3.0781    1.7569 C   0  0  0  0  0  0
   -2.6406    1.8871    2.1726 C   0  0  0  0  0  0
   -3.3848    1.8826    3.2861 F   0  0  0  0  0  0
   -2.4752    0.7323    1.4179 C   0  0  0  0  0  0
   -3.1207   -0.5175    1.8462 C   0  0  0  0  0  0
   -2.6015   -1.1278    2.7775 O   0  0  0  0  0  0
   -4.2604   -0.9415    1.1605 N   0  0  0  0  0  0
   -4.9840   -0.0877    0.2305 C   0  0  0  0  0  0
   -4.9912   -2.0821    1.6878 C   0  0  0  0  0  0
   -1.6907    0.7470    0.2633 C   0  0  0  0  0  0
    1.5984    0.5723   -0.8972 C   0  0  0  0  0  0
    3.6607   -0.5696    0.9569 C   0  0  0  0  0  0
    5.1350   -1.1099    1.6437 S   0  0  0  0  0  0
    7.5050   -1.7421   -1.0046 H   0  0  0  0  0  0
    6.9554   -3.2396   -0.2204 H   0  0  0  0  0  0
    7.6968   -1.9459    0.7432 H   0  0  0  0  0  0
    3.2618   -1.5510   -2.9632 H   0  0  0  0  0  0
    1.4795   -0.8121   -4.5059 H   0  0  0  0  0  0
   -0.2187    0.8324   -3.7639 H   0  0  0  0  0  0
    0.1172    2.8856   -1.4731 H   0  0  0  0  0  0
   -0.8628    4.0520    0.2676 H   0  0  0  0  0  0
   -2.2016    3.9765    2.3481 H   0  0  0  0  0  0
   -5.5098    0.6848    0.7965 H   0  0  0  0  0  0
   -5.7017   -0.6815   -0.3415 H   0  0  0  0  0  0
   -4.3041    0.3937   -0.4728 H   0  0  0  0  0  0
   -4.3578   -2.7289    2.3005 H   0  0  0  0  0  0
   -5.8193   -1.7182    2.3026 H   0  0  0  0  0  0
   -5.3908   -2.6687    0.8552 H   0  0  0  0  0  0
   -1.5638   -0.1655   -0.3129 H   0  0  0  0  0  0
    1.6261    1.0065    0.0975 H   0  0  0  0  0  0
    2.8914   -0.1585    1.5921 H   0  0  0  0  0  0
  1  2  1  0  0  0
  1 26  1  0  0  0
  1 27  1  0  0  0
  1 28  1  0  0  0
  2  3  2  0  0  0
  2 25  1  0  0  0
  3  4  1  0  0  0
  4  5  1  0  0  0
  4 24  2  0  0  0
  5  6  2  0  0  0
  5 23  1  0  0  0
  6  7  1  0  0  0
  6 29  1  0  0  0
  7  8  2  0  0  0
  7 30  1  0  0  0
  8  9  1  0  0  0
  8 31  1  0  0  0
  9 10  1  0  0  0
  9 23  2  0  0  0
 10 11  1  0  0  0
 10 32  1  0  0  0
 11 12  2  0  0  0
 11 22  1  0  0  0
 12 13  1  0  0  0
 12 33  1  0  0  0
 13 14  2  0  0  0
 13 34  1  0  0  0
 14 15  1  0  0  0
 14 16  1  0  0  0
 16 17  1  0  0  0
 16 22  2  0  0  0
 17 18  2  0  0  0
 17 19  1  0  0  0
 19 20  1  0  0  0
 19 21  1  0  0  0
 20 35  1  0  0  0
 20 36  1  0  0  0
 20 37  1  0  0  0
 21 38  1  0  0  0
 21 39  1  0  0  0
 21 40  1  0  0  0
 22 41  1  0  0  0
 23 42  1  0  0  0
 24 25  1  0  0  0
 24 43  1  0  0  0
M  END
> <energy>
37.7952

> <i_ionizer_Ion_state_n>
0

> <i_ionizer_Tot_Q>
0

> <s_ionizer_Ion_centers>


> <s_ionizer_Ion_types>


> <s_ionizer_Ion_ctrs_in>


> <r_ionizer_Ionization_penalty>
0

> <r_ionizer_Ionization_penalty_charging>
0

> <r_ionizer_Ionization_penalty_neutral>
0

$$$$
ZINC001211855658
                    3D
 Schrodinger Suite 2019-4.
 48 50  0  0  1  0            999 V2000
    3.8906    4.5022    0.6287 C   0  0  0  0  0  0
    3.1968    3.3554    1.1043 O   0  0  0  0  0  0
    3.4082    2.1801    0.4309 C   0  0  0  0  0  0
    4.1669    2.0295   -0.7313 C   0  0  0  0  0  0
    4.2802    0.7745   -1.3393 C   0  0  0  0  0  0
    3.6346   -0.3338   -0.7923 C   0  0  0  0  0  0
    2.8747   -0.2080    0.3797 C   0  0  0  0  0  0
    2.1574   -1.3619    0.9277 C   0  0  0  0  0  0
    2.6072   -2.0374    2.0674 C   0  0  0  0  0  0
    1.8840   -3.1248    2.5693 C   0  0  0  0  0  0
    0.6904   -3.5255    1.9554 C   0  0  0  0  0  0
    0.2149   -2.8566    0.8243 C   0  0  0  0  0  0
   -1.0378   -3.2108    0.2762 N   0  0  0  0  0  0
   -1.8243   -2.4581   -0.6118 C   0  0  0  0  0  0
   -2.3171   -3.0426   -1.7851 C   0  0  0  0  0  0
   -2.9657   -2.2573   -2.7463 C   0  0  0  0  0  0
   -3.1427   -0.8898   -2.5393 C   0  0  0  0  0  0
   -3.7458   -0.1631   -3.4886 F   0  0  0  0  0  0
   -2.6986   -0.3072   -1.3605 C   0  0  0  0  0  0
   -2.8677    1.1389   -1.1157 C   0  0  0  0  0  0
   -2.2722    1.9199   -1.8444 O   0  0  0  0  0  0
   -3.6365    1.5271   -0.0168 N   0  0  0  0  0  0
   -3.6416    2.9249    0.3855 C   0  0  0  0  0  0
   -4.6525    0.6854    0.5958 C   0  0  0  0  0  0
   -2.0248   -1.0831   -0.4112 C   0  0  0  0  0  0
    0.9715   -1.7916    0.3156 C   0  0  0  0  0  0
    2.7654    1.0613    0.9766 C   0  0  0  0  0  0
    3.6058    4.7433   -0.4006 H   0  0  0  0  0  0
    3.6105    5.3521    1.2591 H   0  0  0  0  0  0
    4.9737    4.3665    0.7159 H   0  0  0  0  0  0
    4.6743    2.8690   -1.1960 H   0  0  0  0  0  0
    4.8579    0.6662   -2.2530 H   0  0  0  0  0  0
    3.7060   -1.2965   -1.2946 H   0  0  0  0  0  0
    3.5235   -1.7211    2.5622 H   0  0  0  0  0  0
    2.2457   -3.6493    3.4497 H   0  0  0  0  0  0
    0.1320   -4.3534    2.3840 H   0  0  0  0  0  0
   -1.1782   -4.2148    0.2406 H   0  0  0  0  0  0
   -2.1602   -4.1004   -1.9838 H   0  0  0  0  0  0
   -3.3166   -2.7025   -3.6730 H   0  0  0  0  0  0
   -2.7659    3.4665    0.0150 H   0  0  0  0  0  0
   -3.6526    2.9812    1.4799 H   0  0  0  0  0  0
   -4.5461    3.3981   -0.0068 H   0  0  0  0  0  0
   -5.6256    1.1777    0.4859 H   0  0  0  0  0  0
   -4.7298   -0.2999    0.1347 H   0  0  0  0  0  0
   -4.4269    0.5680    1.6599 H   0  0  0  0  0  0
   -1.6385   -0.6081    0.4874 H   0  0  0  0  0  0
    0.6431   -1.2776   -0.5867 H   0  0  0  0  0  0
    2.1524    1.1877    1.8655 H   0  0  0  0  0  0
  1  2  1  0  0  0
  1 28  1  0  0  0
  1 29  1  0  0  0
  1 30  1  0  0  0
  2  3  1  0  0  0
  3  4  2  0  0  0
  3 27  1  0  0  0
  4  5  1  0  0  0
  4 31  1  0  0  0
  5  6  2  0  0  0
  5 32  1  0  0  0
  6  7  1  0  0  0
  6 33  1  0  0  0
  7  8  1  0  0  0
  7 27  2  0  0  0
  8  9  2  0  0  0
  8 26  1  0  0  0
  9 10  1  0  0  0
  9 34  1  0  0  0
 10 11  2  0  0  0
 10 35  1  0  0  0
 11 12  1  0  0  0
 11 36  1  0  0  0
 12 13  1  0  0  0
 12 26  2  0  0  0
 13 14  1  0  0  0
 13 37  1  0  0  0
 14 15  2  0  0  0
 14 25  1  0  0  0
 15 16  1  0  0  0
 15 38  1  0  0  0
 16 17  2  0  0  0
 16 39  1  0  0  0
 17 18  1  0  0  0
 17 19  1  0  0  0
 19 20  1  0  0  0
 19 25  2  0  0  0
 20 21  2  0  0  0
 20 22  1  0  0  0
 22 23  1  0  0  0
 22 24  1  0  0  0
 23 40  1  0  0  0
 23 41  1  0  0  0
 23 42  1  0  0  0
 24 43  1  0  0  0
 24 44  1  0  0  0
 24 45  1  0  0  0
 25 46  1  0  0  0
 26 47  1  0  0  0
 27 48  1  0  0  0
M  END
> <energy>
53.3121

> <i_ionizer_Ion_state_n>
0

> <i_ionizer_Tot_Q>
0

> <s_ionizer_Ion_centers>


> <s_ionizer_Ion_types>


> <s_ionizer_Ion_ctrs_in>


> <r_ionizer_Ionization_penalty>
0

> <r_ionizer_Ionization_penalty_charging>
0

> <r_ionizer_Ionization_penalty_neutral>
0

$$$$
ZINC001211855666
                    3D
 Schrodinger Suite 2019-4.
 48 50  0  0  1  0            999 V2000
    6.1865   -0.5618   -1.8031 C   0  0  0  0  0  0
    6.1823    0.4229   -0.7671 O   0  0  0  0  0  0
    5.0076    0.3203   -0.0713 C   0  0  0  0  0  0
    3.8314    0.8368   -0.6084 C   0  0  0  0  0  0
    2.6279    0.6284    0.0606 C   0  0  0  0  0  0
    2.5872   -0.0876    1.2681 C   0  0  0  0  0  0
    1.2932   -0.4081    1.8821 C   0  0  0  0  0  0
    0.8398    0.2602    3.0254 C   0  0  0  0  0  0
   -0.4324   -0.0062    3.5385 C   0  0  0  0  0  0
   -1.2688   -0.9355    2.9136 C   0  0  0  0  0  0
   -0.8269   -1.6259    1.7842 C   0  0  0  0  0  0
   -1.7108   -2.4867    1.0716 N   0  0  0  0  0  0
   -2.2539   -2.0017   -0.1534 C   0  0  0  0  0  0
   -1.8769   -2.5662   -1.3832 C   0  0  0  0  0  0
   -2.2807   -1.9647   -2.5834 C   0  0  0  0  0  0
   -3.0680   -0.8134   -2.5611 C   0  0  0  0  0  0
   -3.3919   -0.2265   -3.7209 F   0  0  0  0  0  0
   -3.4626   -0.2706   -1.3414 C   0  0  0  0  0  0
   -4.2846    0.9452   -1.2773 C   0  0  0  0  0  0
   -5.4975    0.8164   -1.4075 O   0  0  0  0  0  0
   -3.6397    2.1529   -0.9973 N   0  0  0  0  0  0
   -4.4458    3.3115   -0.6467 C   0  0  0  0  0  0
   -2.2001    2.2932   -0.8397 C   0  0  0  0  0  0
   -3.0695   -0.8656   -0.1421 C   0  0  0  0  0  0
    0.4517   -1.3559    1.2764 C   0  0  0  0  0  0
    3.7968   -0.5230    1.8352 C   0  0  0  0  0  0
    5.0074   -0.3153    1.1665 C   0  0  0  0  0  0
    5.4121   -0.3537   -2.5505 H   0  0  0  0  0  0
    6.0549   -1.5685   -1.3871 H   0  0  0  0  0  0
    7.1576   -0.5295   -2.3047 H   0  0  0  0  0  0
    3.8500    1.3742   -1.5511 H   0  0  0  0  0  0
    1.7101    1.0120   -0.3748 H   0  0  0  0  0  0
    1.4660    1.0103    3.5016 H   0  0  0  0  0  0
   -0.7855    0.5408    4.4079 H   0  0  0  0  0  0
   -2.2692   -1.1099    3.3000 H   0  0  0  0  0  0
   -1.2040   -3.3490    0.8749 H   0  0  0  0  0  0
   -1.2459   -3.4499   -1.4230 H   0  0  0  0  0  0
   -1.9748   -2.3819   -3.5363 H   0  0  0  0  0  0
   -4.1239    4.1683   -1.2429 H   0  0  0  0  0  0
   -4.2924    3.5415    0.4095 H   0  0  0  0  0  0
   -5.5159    3.1501   -0.8091 H   0  0  0  0  0  0
   -1.6561    1.5599   -1.4380 H   0  0  0  0  0  0
   -1.8889    3.2920   -1.1636 H   0  0  0  0  0  0
   -1.9412    2.1519    0.2141 H   0  0  0  0  0  0
   -3.3814   -0.4313    0.8055 H   0  0  0  0  0  0
    0.7870   -1.8656    0.3768 H   0  0  0  0  0  0
    3.7995   -1.0558    2.7809 H   0  0  0  0  0  0
    5.9402   -0.6790    1.5916 H   0  0  0  0  0  0
  1  2  1  0  0  0
  1 28  1  0  0  0
  1 29  1  0  0  0
  1 30  1  0  0  0
  2  3  1  0  0  0
  3  4  2  0  0  0
  3 27  1  0  0  0
  4  5  1  0  0  0
  4 31  1  0  0  0
  5  6  2  0  0  0
  5 32  1  0  0  0
  6  7  1  0  0  0
  6 26  1  0  0  0
  7  8  2  0  0  0
  7 25  1  0  0  0
  8  9  1  0  0  0
  8 33  1  0  0  0
  9 10  2  0  0  0
  9 34  1  0  0  0
 10 11  1  0  0  0
 10 35  1  0  0  0
 11 12  1  0  0  0
 11 25  2  0  0  0
 12 13  1  0  0  0
 12 36  1  0  0  0
 13 14  2  0  0  0
 13 24  1  0  0  0
 14 15  1  0  0  0
 14 37  1  0  0  0
 15 16  2  0  0  0
 15 38  1  0  0  0
 16 17  1  0  0  0
 16 18  1  0  0  0
 18 19  1  0  0  0
 18 24  2  0  0  0
 19 20  2  0  0  0
 19 21  1  0  0  0
 21 22  1  0  0  0
 21 23  1  0  0  0
 22 39  1  0  0  0
 22 40  1  0  0  0
 22 41  1  0  0  0
 23 42  1  0  0  0
 23 43  1  0  0  0
 23 44  1  0  0  0
 24 45  1  0  0  0
 25 46  1  0  0  0
 26 27  2  0  0  0
 26 47  1  0  0  0
 27 48  1  0  0  0
M  END
> <energy>
61.1698

> <i_ionizer_Ion_state_n>
0

> <i_ionizer_Tot_Q>
0

> <s_ionizer_Ion_centers>


> <s_ionizer_Ion_types>


> <s_ionizer_Ion_ctrs_in>


> <r_ionizer_Ionization_penalty>
0

> <r_ionizer_Ionization_penalty_charging>
0

> <r_ionizer_Ionization_penalty_neutral>
0

$$$$
ZINC001211855667
                    3D
 Schrodinger Suite 2019-4.
 48 50  0  0  1  0            999 V2000
    5.3985   -4.1077   -1.1166 C   0  0  0  0  0  0
    4.3776   -3.4862   -0.3496 O   0  0  0  0  0  0
    3.8057   -2.3819   -0.9088 C   0  0  0  0  0  0
    3.7021   -2.1168   -2.2704 C   0  0  0  0  0  0
    3.0678   -0.9542   -2.7086 C   0  0  0  0  0  0
    2.5202   -0.0638   -1.7825 C   0  0  0  0  0  0
    2.6062   -0.3016   -0.3976 C   0  0  0  0  0  0
    1.9474    0.6171    0.5644 C   0  0  0  0  0  0
    1.2615    0.1212    1.6870 C   0  0  0  0  0  0
    0.3981    0.9322    2.4303 C   0  0  0  0  0  0
    0.2039    2.2670    2.0653 C   0  0  0  0  0  0
   -0.9841    2.9604    2.4776 N   0  0  0  0  0  0
   -2.0751    2.8559    1.5505 C   0  0  0  0  0  0
   -2.2173    3.7920    0.5090 C   0  0  0  0  0  0
   -3.0519    3.5155   -0.5814 C   0  0  0  0  0  0
   -3.7465    2.3060   -0.6455 C   0  0  0  0  0  0
   -4.4931    2.0352   -1.7248 F   0  0  0  0  0  0
   -3.6273    1.3889    0.3982 C   0  0  0  0  0  0
   -4.2875    0.0772    0.3422 C   0  0  0  0  0  0
   -5.4488    0.0233    0.7264 O   0  0  0  0  0  0
   -3.5286   -1.0280   -0.0498 N   0  0  0  0  0  0
   -4.0804   -2.3628    0.1363 C   0  0  0  0  0  0
   -2.1365   -0.9747   -0.4708 C   0  0  0  0  0  0
   -2.8163    1.6666    1.5032 C   0  0  0  0  0  0
    0.9902    2.8150    1.0510 C   0  0  0  0  0  0
    1.8541    2.0011    0.3174 C   0  0  0  0  0  0
    3.2648   -1.4726    0.0129 C   0  0  0  0  0  0
    6.0770   -3.3686   -1.5626 H   0  0  0  0  0  0
    4.9643   -4.7713   -1.8746 H   0  0  0  0  0  0
    5.9865   -4.7199   -0.4229 H   0  0  0  0  0  0
    4.0843   -2.8029   -3.0155 H   0  0  0  0  0  0
    2.9953   -0.7298   -3.7695 H   0  0  0  0  0  0
    1.9956    0.8110   -2.1613 H   0  0  0  0  0  0
    1.3006   -0.9377    1.9360 H   0  0  0  0  0  0
   -0.1990    0.4760    3.2132 H   0  0  0  0  0  0
   -1.2876    2.5270    3.3524 H   0  0  0  0  0  0
   -1.6432    4.7185    0.5302 H   0  0  0  0  0  0
   -3.1433    4.2255   -1.3987 H   0  0  0  0  0  0
   -5.1598   -2.3532    0.3128 H   0  0  0  0  0  0
   -3.8702   -2.9679   -0.7524 H   0  0  0  0  0  0
   -3.5921   -2.8261    1.0014 H   0  0  0  0  0  0
   -1.7886    0.0342   -0.6884 H   0  0  0  0  0  0
   -2.0137   -1.5722   -1.3794 H   0  0  0  0  0  0
   -1.4996   -1.3871    0.3175 H   0  0  0  0  0  0
   -2.7142    0.9154    2.2834 H   0  0  0  0  0  0
    0.8495    3.8546    0.7534 H   0  0  0  0  0  0
    2.3899    2.4499   -0.5143 H   0  0  0  0  0  0
    3.3639   -1.6996    1.0741 H   0  0  0  0  0  0
  1  2  1  0  0  0
  1 28  1  0  0  0
  1 29  1  0  0  0
  1 30  1  0  0  0
  2  3  1  0  0  0
  3  4  2  0  0  0
  3 27  1  0  0  0
  4  5  1  0  0  0
  4 31  1  0  0  0
  5  6  2  0  0  0
  5 32  1  0  0  0
  6  7  1  0  0  0
  6 33  1  0  0  0
  7  8  1  0  0  0
  7 27  2  0  0  0
  8  9  2  0  0  0
  8 26  1  0  0  0
  9 10  1  0  0  0
  9 34  1  0  0  0
 10 11  2  0  0  0
 10 35  1  0  0  0
 11 12  1  0  0  0
 11 25  1  0  0  0
 12 13  1  0  0  0
 12 36  1  0  0  0
 13 14  2  0  0  0
 13 24  1  0  0  0
 14 15  1  0  0  0
 14 37  1  0  0  0
 15 16  2  0  0  0
 15 38  1  0  0  0
 16 17  1  0  0  0
 16 18  1  0  0  0
 18 19  1  0  0  0
 18 24  2  0  0  0
 19 20  2  0  0  0
 19 21  1  0  0  0
 21 22  1  0  0  0
 21 23  1  0  0  0
 22 39  1  0  0  0
 22 40  1  0  0  0
 22 41  1  0  0  0
 23 42  1  0  0  0
 23 43  1  0  0  0
 23 44  1  0  0  0
 24 45  1  0  0  0
 25 26  2  0  0  0
 25 46  1  0  0  0
 26 47  1  0  0  0
 27 48  1  0  0  0
M  END
> <energy>
66.0888

> <i_ionizer_Ion_state_n>
0

> <i_ionizer_Tot_Q>
0

> <s_ionizer_Ion_centers>


> <s_ionizer_Ion_types>


> <s_ionizer_Ion_ctrs_in>


> <r_ionizer_Ionization_penalty>
0

> <r_ionizer_Ionization_penalty_charging>
0

> <r_ionizer_Ionization_penalty_neutral>
0

$$$$
ZINC001211855677
                    3D
 Schrodinger Suite 2019-4.
 40 41  0  0  1  0            999 V2000
    2.9018   -1.8064   -2.8292 C   0  0  0  0  0  0
    2.5670   -1.7264   -1.3678 C   0  0  0  0  0  0
    2.3133   -0.4709   -0.7933 C   0  0  0  0  0  0
    2.0755   -0.3126    0.5837 C   0  0  0  0  0  0
    1.8314    0.9965    1.0755 N   0  0  0  0  0  0
    0.6920    1.7394    0.6692 C   0  0  0  0  0  0
    0.8400    3.0876    0.3248 C   0  0  0  0  0  0
   -0.2751    3.8558   -0.0206 C   0  0  0  0  0  0
   -1.5447    3.2852    0.0209 C   0  0  0  0  0  0
   -2.6027    4.0368   -0.3150 F   0  0  0  0  0  0
   -1.7035    1.9527    0.3919 C   0  0  0  0  0  0
   -3.0410    1.3602    0.5219 C   0  0  0  0  0  0
   -3.7385    1.7557    1.4528 O   0  0  0  0  0  0
   -3.4055    0.3394   -0.3497 N   0  0  0  0  0  0
   -4.6172   -0.4155   -0.0820 C   0  0  0  0  0  0
   -2.5905   -0.1337   -1.4608 C   0  0  0  0  0  0
   -0.5881    1.1813    0.7308 C   0  0  0  0  0  0
    2.0400   -1.4517    1.4042 C   0  0  0  0  0  0
    1.7836   -1.3665    2.8833 C   0  0  0  0  0  0
    2.2426   -2.7166    0.8261 C   0  0  0  0  0  0
    2.5052   -2.8516   -0.5406 C   0  0  0  0  0  0
    2.7860   -4.6041   -1.2106 Br  0  0  0  0  0  0
    3.8429   -2.3438   -2.9758 H   0  0  0  0  0  0
    2.0994   -2.3018   -3.3825 H   0  0  0  0  0  0
    3.0417   -0.8070   -3.2536 H   0  0  0  0  0  0
    2.3252    0.4195   -1.4199 H   0  0  0  0  0  0
    1.8750    1.0110    2.0928 H   0  0  0  0  0  0
    1.8292    3.5392    0.3192 H   0  0  0  0  0  0
   -0.1630    4.8994   -0.2990 H   0  0  0  0  0  0
   -5.2110    0.0170    0.7262 H   0  0  0  0  0  0
   -5.2268   -0.4469   -0.9904 H   0  0  0  0  0  0
   -4.3368   -1.4360    0.1975 H   0  0  0  0  0  0
   -1.8462    0.6022   -1.7700 H   0  0  0  0  0  0
   -3.2438   -0.3372   -2.3140 H   0  0  0  0  0  0
   -2.0896   -1.0563   -1.1539 H   0  0  0  0  0  0
   -0.7268    0.1533    1.0575 H   0  0  0  0  0  0
    0.8003   -0.9251    3.0794 H   0  0  0  0  0  0
    2.5594   -0.7623    3.3659 H   0  0  0  0  0  0
    1.7991   -2.3568    3.3502 H   0  0  0  0  0  0
    2.2005   -3.6027    1.4550 H   0  0  0  0  0  0
  1  2  1  0  0  0
  1 23  1  0  0  0
  1 24  1  0  0  0
  1 25  1  0  0  0
  2  3  2  0  0  0
  2 21  1  0  0  0
  3  4  1  0  0  0
  3 26  1  0  0  0
  4  5  1  0  0  0
  4 18  2  0  0  0
  5  6  1  0  0  0
  5 27  1  0  0  0
  6  7  2  0  0  0
  6 17  1  0  0  0
  7  8  1  0  0  0
  7 28  1  0  0  0
  8  9  2  0  0  0
  8 29  1  0  0  0
  9 10  1  0  0  0
  9 11  1  0  0  0
 11 12  1  0  0  0
 11 17  2  0  0  0
 12 13  2  0  0  0
 12 14  1  0  0  0
 14 15  1  0  0  0
 14 16  1  0  0  0
 15 30  1  0  0  0
 15 31  1  0  0  0
 15 32  1  0  0  0
 16 33  1  0  0  0
 16 34  1  0  0  0
 16 35  1  0  0  0
 17 36  1  0  0  0
 18 19  1  0  0  0
 18 20  1  0  0  0
 19 37  1  0  0  0
 19 38  1  0  0  0
 19 39  1  0  0  0
 20 21  2  0  0  0
 20 40  1  0  0  0
 21 22  1  0  0  0
M  END
> <energy>
37.2027

> <i_ionizer_Ion_state_n>
0

> <i_ionizer_Tot_Q>
0

> <s_ionizer_Ion_centers>


> <s_ionizer_Ion_types>


> <s_ionizer_Ion_ctrs_in>


> <r_ionizer_Ionization_penalty>
0

> <r_ionizer_Ionization_penalty_charging>
0

> <r_ionizer_Ionization_penalty_neutral>
0

$$$$
ZINC001211855690
                    3D
 Schrodinger Suite 2019-4.
 34 35  0  0  1  0            999 V2000
    1.8539   -2.7204    0.8125 C   0  0  0  0  0  0
    2.3260   -2.2086   -0.4655 N   0  0  0  0  0  0
    2.4874   -3.1982   -1.5180 C   0  0  0  0  0  0
    2.2741   -0.8632   -0.8292 C   0  0  0  0  0  0
    2.4812   -0.4480   -1.9669 O   0  0  0  0  0  0
    1.8512    0.1207    0.1788 C   0  0  0  0  0  0
    0.5461    0.6147    0.1132 C   0  0  0  0  0  0
    0.0879    1.5294    1.0668 C   0  0  0  0  0  0
   -1.1970    2.1220    0.9780 N   0  0  0  0  0  0
   -2.2358    1.6491    0.1366 C   0  0  0  0  0  0
   -2.9440    0.4938    0.5130 C   0  0  0  0  0  0
   -3.9561   -0.0143   -0.2975 C   0  0  0  0  0  0
   -4.2765    0.6341   -1.4905 C   0  0  0  0  0  0
   -3.5885    1.7889   -1.8789 C   0  0  0  0  0  0
   -4.0708    2.5259   -3.3667 Cl  0  0  0  0  0  0
   -2.5643    2.3010   -1.0703 C   0  0  0  0  0  0
   -1.5915    3.8649   -1.5834 Br  0  0  0  0  0  0
    0.9836    1.9874    2.0434 C   0  0  0  0  0  0
    2.2984    1.5140    2.0893 C   0  0  0  0  0  0
    2.7298    0.5795    1.1527 C   0  0  0  0  0  0
    3.9917    0.1355    1.2101 F   0  0  0  0  0  0
    0.7730   -2.8831    0.7448 H   0  0  0  0  0  0
    2.0642   -2.0320    1.6317 H   0  0  0  0  0  0
    2.3557   -3.6683    1.0265 H   0  0  0  0  0  0
    2.9430   -2.7737   -2.4155 H   0  0  0  0  0  0
    1.5005   -3.5948   -1.7784 H   0  0  0  0  0  0
    3.1156   -4.0140   -1.1507 H   0  0  0  0  0  0
   -0.0970    0.2689   -0.6910 H   0  0  0  0  0  0
   -1.5522    2.3688    1.8993 H   0  0  0  0  0  0
   -2.6860   -0.0274    1.4322 H   0  0  0  0  0  0
   -4.4913   -0.9144   -0.0055 H   0  0  0  0  0  0
   -5.0700    0.2355   -2.1205 H   0  0  0  0  0  0
    0.6673    2.7439    2.7605 H   0  0  0  0  0  0
    2.9905    1.8826    2.8393 H   0  0  0  0  0  0
  1  2  1  0  0  0
  1 22  1  0  0  0
  1 23  1  0  0  0
  1 24  1  0  0  0
  2  3  1  0  0  0
  2  4  1  0  0  0
  3 25  1  0  0  0
  3 26  1  0  0  0
  3 27  1  0  0  0
  4  5  2  0  0  0
  4  6  1  0  0  0
  6  7  2  0  0  0
  6 20  1  0  0  0
  7  8  1  0  0  0
  7 28  1  0  0  0
  8  9  1  0  0  0
  8 18  2  0  0  0
  9 10  1  0  0  0
  9 29  1  0  0  0
 10 11  2  0  0  0
 10 16  1  0  0  0
 11 12  1  0  0  0
 11 30  1  0  0  0
 12 13  2  0  0  0
 12 31  1  0  0  0
 13 14  1  0  0  0
 13 32  1  0  0  0
 14 15  1  0  0  0
 14 16  2  0  0  0
 16 17  1  0  0  0
 18 19  1  0  0  0
 18 33  1  0  0  0
 19 20  2  0  0  0
 19 34  1  0  0  0
 20 21  1  0  0  0
M  END
> <energy>
51.6849

> <i_ionizer_Ion_state_n>
0

> <i_ionizer_Tot_Q>
0

> <s_ionizer_Ion_centers>


> <s_ionizer_Ion_types>


> <s_ionizer_Ion_ctrs_in>


> <r_ionizer_Ionization_penalty>
0

> <r_ionizer_Ionization_penalty_charging>
0

> <r_ionizer_Ionization_penalty_neutral>
0

$$$$
ZINC001211855718
                    3D
 Schrodinger Suite 2019-4.
 50 53  0  0  1  0            999 V2000
    5.1670   -1.8256    0.5961 C   0  0  0  0  0  0
    4.1655   -0.7722    0.6806 N   0  0  0  0  0  0
    2.7785   -1.2059    0.7449 C   0  0  0  0  0  0
    4.5713    0.5488    0.4766 C   0  0  0  0  0  0
    5.7379    0.8880    0.2863 O   0  0  0  0  0  0
    3.5487    1.5991    0.3923 C   0  0  0  0  0  0
    2.9544    1.8482   -0.8485 C   0  0  0  0  0  0
    1.9246    2.7911   -0.9507 C   0  0  0  0  0  0
    1.1096    2.8429   -2.1266 N   0  0  0  0  0  0
   -0.1342    2.1362   -2.0733 C   0  0  0  0  0  0
   -1.3418    2.8658   -2.1444 C   0  0  0  0  0  0
   -2.5597    2.2479   -1.8432 C   0  0  0  0  0  0
   -2.5274    0.9273   -1.4546 C   0  0  0  0  0  0
   -1.3603    0.2021   -1.4542 C   0  0  0  0  0  0
   -0.1536    0.7597   -1.7955 C   0  0  0  0  0  0
   -1.5315   -1.0579   -0.9710 O   0  0  0  0  0  0
   -2.8795   -0.9560   -0.4317 C   0  0  0  0  0  0
   -2.7421   -0.8169    1.1050 C   0  0  0  0  0  0
   -3.8677   -1.5221    1.8508 C   0  0  0  0  0  0
   -3.8860   -3.0184    1.5500 C   0  0  0  0  0  0
   -3.5041   -3.3691    0.1127 C   0  0  0  0  0  0
   -3.6825   -2.2003   -0.8516 C   0  0  0  0  0  0
   -3.5708    0.2119   -0.9525 O   0  0  0  0  0  0
    1.5453    3.5183    0.1888 C   0  0  0  0  0  0
    2.1806    3.3023    1.4152 C   0  0  0  0  0  0
    3.1762    2.3313    1.5151 C   0  0  0  0  0  0
    3.7339    2.0938    2.7124 F   0  0  0  0  0  0
    6.1834   -1.4346    0.6938 H   0  0  0  0  0  0
    5.0749   -2.3225   -0.3724 H   0  0  0  0  0  0
    4.9982   -2.5555    1.3923 H   0  0  0  0  0  0
    2.4753   -1.5509   -0.2457 H   0  0  0  0  0  0
    2.6897   -2.0268    1.4599 H   0  0  0  0  0  0
    2.1112   -0.4018    1.0560 H   0  0  0  0  0  0
    3.2521    1.2493   -1.7059 H   0  0  0  0  0  0
    1.6552    2.4336   -2.8908 H   0  0  0  0  0  0
   -1.3126    3.9308   -2.3681 H   0  0  0  0  0  0
   -3.4855    2.8128   -1.8356 H   0  0  0  0  0  0
    0.7551    0.1724   -1.7333 H   0  0  0  0  0  0
   -2.7330    0.2446    1.3907 H   0  0  0  0  0  0
   -1.7773   -1.2263    1.4343 H   0  0  0  0  0  0
   -4.8271   -1.0767    1.5648 H   0  0  0  0  0  0
   -3.7612   -1.3669    2.9318 H   0  0  0  0  0  0
   -3.1994   -3.5413    2.2261 H   0  0  0  0  0  0
   -4.8825   -3.4148    1.7782 H   0  0  0  0  0  0
   -4.1052   -4.2223   -0.2254 H   0  0  0  0  0  0
   -2.4586   -3.7035    0.0866 H   0  0  0  0  0  0
   -3.3674   -2.5140   -1.8550 H   0  0  0  0  0  0
   -4.7504   -1.9549   -0.9329 H   0  0  0  0  0  0
    0.7337    4.2404    0.1233 H   0  0  0  0  0  0
    1.8790    3.8587    2.2985 H   0  0  0  0  0  0
  1  2  1  0  0  0
  1 28  1  0  0  0
  1 29  1  0  0  0
  1 30  1  0  0  0
  2  3  1  0  0  0
  2  4  1  0  0  0
  3 31  1  0  0  0
  3 32  1  0  0  0
  3 33  1  0  0  0
  4  5  2  0  0  0
  4  6  1  0  0  0
  6  7  2  0  0  0
  6 26  1  0  0  0
  7  8  1  0  0  0
  7 34  1  0  0  0
  8  9  1  0  0  0
  8 24  2  0  0  0
  9 10  1  0  0  0
  9 35  1  0  0  0
 10 11  2  0  0  0
 10 15  1  0  0  0
 11 12  1  0  0  0
 11 36  1  0  0  0
 12 13  2  0  0  0
 12 37  1  0  0  0
 13 14  1  0  0  0
 13 23  1  0  0  0
 14 15  2  0  0  0
 14 16  1  0  0  0
 15 38  1  0  0  0
 16 17  1  0  0  0
 17 18  1  0  0  0
 17 22  1  0  0  0
 17 23  1  0  0  0
 18 19  1  0  0  0
 18 39  1  0  0  0
 18 40  1  0  0  0
 19 20  1  0  0  0
 19 41  1  0  0  0
 19 42  1  0  0  0
 20 21  1  0  0  0
 20 43  1  0  0  0
 20 44  1  0  0  0
 21 22  1  0  0  0
 21 45  1  0  0  0
 21 46  1  0  0  0
 22 47  1  0  0  0
 22 48  1  0  0  0
 24 25  1  0  0  0
 24 49  1  0  0  0
 25 26  2  0  0  0
 25 50  1  0  0  0
 26 27  1  0  0  0
M  END
> <energy>
51.6626

> <i_ionizer_Ion_state_n>
0

> <i_ionizer_Tot_Q>
0

> <s_ionizer_Ion_centers>


> <s_ionizer_Ion_types>


> <s_ionizer_Ion_ctrs_in>


> <r_ionizer_Ionization_penalty>
0

> <r_ionizer_Ionization_penalty_charging>
0

> <r_ionizer_Ionization_penalty_neutral>
0

$$$$
ZINC001211855723
                    3D
 Schrodinger Suite 2019-4.
 51 53  0  0  1  0            999 V2000
    4.5437    1.9160   -1.4083 C   0  0  0  0  0  0
    3.7142    1.1943   -0.4566 N   0  0  0  0  0  0
    2.2762    1.3183   -0.6415 C   0  0  0  0  0  0
    4.3279    0.3806    0.4953 C   0  0  0  0  0  0
    5.5403    0.3316    0.6813 O   0  0  0  0  0  0
    3.4827   -0.5359    1.2823 C   0  0  0  0  0  0
    2.8291   -1.5813    0.6267 C   0  0  0  0  0  0
    2.0039   -2.4612    1.3377 C   0  0  0  0  0  0
    1.1904   -3.4071    0.6502 N   0  0  0  0  0  0
    0.1441   -2.9344   -0.1918 C   0  0  0  0  0  0
   -1.1477   -2.7748    0.3215 C   0  0  0  0  0  0
   -2.1336   -2.1310   -0.4299 C   0  0  0  0  0  0
   -1.8216   -1.5883   -1.6745 C   0  0  0  0  0  0
   -2.6550   -0.8168   -2.4355 O   0  0  0  0  0  0
   -3.6535   -0.0667   -1.7325 C   0  0  0  0  0  0
   -3.0394    1.0208   -0.8369 C   0  0  0  0  0  0
   -3.5086    0.9242    0.6148 C   0  0  0  0  0  0
   -3.1806    2.2864    1.2087 C   0  0  0  0  0  0
   -3.2094    3.2685    0.0408 C   0  0  0  0  0  0
   -3.4832    2.4354   -1.2090 C   0  0  0  0  0  0
   -0.5544   -1.7885   -2.2118 C   0  0  0  0  0  0
    0.4240   -2.4567   -1.4759 C   0  0  0  0  0  0
    1.8950   -2.3123    2.7301 C   0  0  0  0  0  0
    2.5692   -1.2770    3.3873 C   0  0  0  0  0  0
    3.3571   -0.3880    2.6578 C   0  0  0  0  0  0
    3.9531    0.6266    3.3019 F   0  0  0  0  0  0
    4.3408    1.5267   -2.4117 H   0  0  0  0  0  0
    5.6100    1.8064   -1.1935 H   0  0  0  0  0  0
    4.2800    2.9775   -1.3710 H   0  0  0  0  0  0
    2.0285    2.3692   -0.8142 H   0  0  0  0  0  0
    1.9799    0.7275   -1.5123 H   0  0  0  0  0  0
    1.7203    0.9825    0.2361 H   0  0  0  0  0  0
    2.9569   -1.6999   -0.4439 H   0  0  0  0  0  0
    0.7996   -4.0617    1.3269 H   0  0  0  0  0  0
   -1.3837   -3.1116    1.3275 H   0  0  0  0  0  0
   -3.1205   -2.0400    0.0050 H   0  0  0  0  0  0
   -4.2669    0.3976   -2.5117 H   0  0  0  0  0  0
   -4.3264   -0.7423   -1.1926 H   0  0  0  0  0  0
   -1.9420    0.9881   -0.8621 H   0  0  0  0  0  0
   -4.5897    0.7446    0.6603 H   0  0  0  0  0  0
   -3.0159    0.1220    1.1700 H   0  0  0  0  0  0
   -3.8884    2.5604    1.9977 H   0  0  0  0  0  0
   -2.1801    2.2655    1.6534 H   0  0  0  0  0  0
   -3.9798    4.0343    0.1785 H   0  0  0  0  0  0
   -2.2434    3.7787   -0.0418 H   0  0  0  0  0  0
   -4.5548    2.4582   -1.4397 H   0  0  0  0  0  0
   -2.9445    2.8237   -2.0798 H   0  0  0  0  0  0
   -0.3093   -1.3804   -3.1894 H   0  0  0  0  0  0
    1.4175   -2.5761   -1.8987 H   0  0  0  0  0  0
    1.2728   -2.9848    3.3132 H   0  0  0  0  0  0
    2.4753   -1.1491    4.4618 H   0  0  0  0  0  0
  1  2  1  0  0  0
  1 27  1  0  0  0
  1 28  1  0  0  0
  1 29  1  0  0  0
  2  3  1  0  0  0
  2  4  1  0  0  0
  3 30  1  0  0  0
  3 31  1  0  0  0
  3 32  1  0  0  0
  4  5  2  0  0  0
  4  6  1  0  0  0
  6  7  2  0  0  0
  6 25  1  0  0  0
  7  8  1  0  0  0
  7 33  1  0  0  0
  8  9  1  0  0  0
  8 23  2  0  0  0
  9 10  1  0  0  0
  9 34  1  0  0  0
 10 11  2  0  0  0
 10 22  1  0  0  0
 11 12  1  0  0  0
 11 35  1  0  0  0
 12 13  2  0  0  0
 12 36  1  0  0  0
 13 14  1  0  0  0
 13 21  1  0  0  0
 14 15  1  0  0  0
 15 16  1  0  0  0
 15 37  1  0  0  0
 15 38  1  0  0  0
 16 17  1  0  0  0
 16 20  1  0  0  0
 16 39  1  0  0  0
 17 18  1  0  0  0
 17 40  1  0  0  0
 17 41  1  0  0  0
 18 19  1  0  0  0
 18 42  1  0  0  0
 18 43  1  0  0  0
 19 20  1  0  0  0
 19 44  1  0  0  0
 19 45  1  0  0  0
 20 46  1  0  0  0
 20 47  1  0  0  0
 21 22  2  0  0  0
 21 48  1  0  0  0
 22 49  1  0  0  0
 23 24  1  0  0  0
 23 50  1  0  0  0
 24 25  2  0  0  0
 24 51  1  0  0  0
 25 26  1  0  0  0
M  END
> <energy>
50.4143

> <i_ionizer_Ion_state_n>
0

> <i_ionizer_Tot_Q>
0

> <s_ionizer_Ion_centers>


> <s_ionizer_Ion_types>


> <s_ionizer_Ion_ctrs_in>


> <r_ionizer_Ionization_penalty>
0

> <r_ionizer_Ionization_penalty_charging>
0

> <r_ionizer_Ionization_penalty_neutral>
0

$$$$
ZINC001211855776
                    3D
 Schrodinger Suite 2019-4.
 48 50  0  0  1  0            999 V2000
    2.2837   -1.0365    1.7295 C   0  0  0  0  0  0
    3.2940   -0.1833    1.1974 O   0  0  0  0  0  0
    3.7007   -0.6017   -0.0476 C   0  0  0  0  0  0
    4.7477   -1.5271   -0.0904 C   0  0  0  0  0  0
    5.2644   -1.9333   -1.3168 C   0  0  0  0  0  0
    4.7462   -1.4024   -2.4956 C   0  0  0  0  0  0
    3.6952   -0.4779   -2.4486 C   0  0  0  0  0  0
    3.1448   -0.0497   -1.2248 C   0  0  0  0  0  0
    2.0204    0.9144   -1.2018 C   0  0  0  0  0  0
    0.8970    0.7417   -2.0282 C   0  0  0  0  0  0
   -0.2290    1.5644   -1.9034 C   0  0  0  0  0  0
   -0.2655    2.5676   -0.9263 C   0  0  0  0  0  0
   -1.5078    3.1714   -0.5470 N   0  0  0  0  0  0
   -2.2673    2.4715    0.4434 C   0  0  0  0  0  0
   -2.1291    2.8025    1.8016 C   0  0  0  0  0  0
   -2.6983    1.9949    2.7970 C   0  0  0  0  0  0
   -3.3750    0.8332    2.4393 C   0  0  0  0  0  0
   -3.8614    0.0403    3.4033 F   0  0  0  0  0  0
   -3.4907    0.4870    1.0989 C   0  0  0  0  0  0
   -4.0808   -0.7994    0.7042 C   0  0  0  0  0  0
   -5.3025   -0.8583    0.6135 O   0  0  0  0  0  0
   -3.2079   -1.8420    0.3811 N   0  0  0  0  0  0
   -1.7568   -1.7472    0.4422 C   0  0  0  0  0  0
   -3.7445   -3.0383   -0.2435 C   0  0  0  0  0  0
   -2.9691    1.3113    0.0986 C   0  0  0  0  0  0
    0.8678    2.7899   -0.1435 C   0  0  0  0  0  0
    2.0025    1.9905   -0.2997 C   0  0  0  0  0  0
    1.8779   -0.5496    2.6232 H   0  0  0  0  0  0
    2.7130   -1.9968    2.0327 H   0  0  0  0  0  0
    1.4625   -1.1834    1.0209 H   0  0  0  0  0  0
    5.1713   -1.9142    0.8306 H   0  0  0  0  0  0
    6.0791   -2.6518   -1.3543 H   0  0  0  0  0  0
    5.1636   -1.6986   -3.4527 H   0  0  0  0  0  0
    3.3181   -0.0782   -3.3864 H   0  0  0  0  0  0
    0.8561   -0.0855   -2.7338 H   0  0  0  0  0  0
   -1.1000    1.3557   -2.5184 H   0  0  0  0  0  0
   -2.0823    3.2062   -1.3912 H   0  0  0  0  0  0
   -1.5556    3.6804    2.0850 H   0  0  0  0  0  0
   -2.5818    2.2478    3.8462 H   0  0  0  0  0  0
   -1.3432   -2.7107    0.7517 H   0  0  0  0  0  0
   -1.3803   -1.4902   -0.5511 H   0  0  0  0  0  0
   -1.4209   -0.9924    1.1532 H   0  0  0  0  0  0
   -3.4317   -3.0554   -1.2917 H   0  0  0  0  0  0
   -3.3411   -3.9185    0.2664 H   0  0  0  0  0  0
   -4.8362   -3.0738   -0.2033 H   0  0  0  0  0  0
   -3.0608    0.9993   -0.9377 H   0  0  0  0  0  0
    0.8547    3.5516    0.6320 H   0  0  0  0  0  0
    2.8590    2.1747    0.3456 H   0  0  0  0  0  0
  1  2  1  0  0  0
  1 28  1  0  0  0
  1 29  1  0  0  0
  1 30  1  0  0  0
  2  3  1  0  0  0
  3  4  2  0  0  0
  3  8  1  0  0  0
  4  5  1  0  0  0
  4 31  1  0  0  0
  5  6  2  0  0  0
  5 32  1  0  0  0
  6  7  1  0  0  0
  6 33  1  0  0  0
  7  8  2  0  0  0
  7 34  1  0  0  0
  8  9  1  0  0  0
  9 10  2  0  0  0
  9 27  1  0  0  0
 10 11  1  0  0  0
 10 35  1  0  0  0
 11 12  2  0  0  0
 11 36  1  0  0  0
 12 13  1  0  0  0
 12 26  1  0  0  0
 13 14  1  0  0  0
 13 37  1  0  0  0
 14 15  2  0  0  0
 14 25  1  0  0  0
 15 16  1  0  0  0
 15 38  1  0  0  0
 16 17  2  0  0  0
 16 39  1  0  0  0
 17 18  1  0  0  0
 17 19  1  0  0  0
 19 20  1  0  0  0
 19 25  2  0  0  0
 20 21  2  0  0  0
 20 22  1  0  0  0
 22 23  1  0  0  0
 22 24  1  0  0  0
 23 40  1  0  0  0
 23 41  1  0  0  0
 23 42  1  0  0  0
 24 43  1  0  0  0
 24 44  1  0  0  0
 24 45  1  0  0  0
 25 46  1  0  0  0
 26 27  2  0  0  0
 26 47  1  0  0  0
 27 48  1  0  0  0
M  END
> <energy>
73.7797

> <i_ionizer_Ion_state_n>
0

> <i_ionizer_Tot_Q>
0

> <s_ionizer_Ion_centers>


> <s_ionizer_Ion_types>


> <s_ionizer_Ion_ctrs_in>


> <r_ionizer_Ionization_penalty>
0

> <r_ionizer_Ionization_penalty_charging>
0

> <r_ionizer_Ionization_penalty_neutral>
0

$$$$
ZINC001211855795
                    3D
 Schrodinger Suite 2019-4.
 40 41  0  0  1  0            999 V2000
    4.8304    1.3780    1.4566 C   0  0  0  0  0  0
    3.5539    1.5074    0.6574 C   0  0  0  0  0  0
    3.0496    0.4318   -0.1218 C   0  0  0  0  0  0
    3.7928   -0.8808   -0.2077 C   0  0  0  0  0  0
    1.7945    0.5666   -0.7673 C   0  0  0  0  0  0
    1.2730   -0.4944   -1.5446 N   0  0  0  0  0  0
   -0.0086   -1.0756   -1.4158 C   0  0  0  0  0  0
   -0.4311   -2.0157   -2.3689 C   0  0  0  0  0  0
   -1.6491   -2.6917   -2.2199 C   0  0  0  0  0  0
   -2.4532   -2.4375   -1.1101 C   0  0  0  0  0  0
   -3.6165   -3.0887   -0.9818 F   0  0  0  0  0  0
   -2.0287   -1.5265   -0.1480 C   0  0  0  0  0  0
   -2.8171   -1.2708    1.0662 C   0  0  0  0  0  0
   -2.4824   -1.8738    2.0825 O   0  0  0  0  0  0
   -3.8294   -0.3146    1.0166 N   0  0  0  0  0  0
   -4.1652    0.4719   -0.1592 C   0  0  0  0  0  0
   -4.4576    0.0973    2.2633 C   0  0  0  0  0  0
   -0.7996   -0.8750   -0.2792 C   0  0  0  0  0  0
    1.1093    1.7887   -0.7276 C   0  0  0  0  0  0
    1.6268    2.8606   -0.0120 C   0  0  0  0  0  0
    2.8401    2.7235    0.6681 C   0  0  0  0  0  0
    3.4730    4.2703    1.5815 Br  0  0  0  0  0  0
    5.1998    0.3517    1.5172 H   0  0  0  0  0  0
    4.6661    1.6887    2.4941 H   0  0  0  0  0  0
    5.6209    1.9878    1.0094 H   0  0  0  0  0  0
    3.6521   -1.4604    0.7121 H   0  0  0  0  0  0
    3.4638   -1.5021   -1.0484 H   0  0  0  0  0  0
    4.8609   -0.7054   -0.3761 H   0  0  0  0  0  0
    1.5572   -0.3968   -2.5174 H   0  0  0  0  0  0
    0.2047   -2.2584   -3.2178 H   0  0  0  0  0  0
   -1.9642   -3.4278   -2.9502 H   0  0  0  0  0  0
   -3.6202    1.4152   -0.1111 H   0  0  0  0  0  0
   -3.9061   -0.0341   -1.0882 H   0  0  0  0  0  0
   -5.2407    0.6640   -0.1611 H   0  0  0  0  0  0
   -4.1438    1.1210    2.4902 H   0  0  0  0  0  0
   -4.1856   -0.5543    3.0984 H   0  0  0  0  0  0
   -5.5439    0.0800    2.1359 H   0  0  0  0  0  0
   -0.4648   -0.2246    0.5261 H   0  0  0  0  0  0
    0.1652    1.9084   -1.2571 H   0  0  0  0  0  0
    1.0738    3.7959    0.0156 H   0  0  0  0  0  0
  1  2  1  0  0  0
  1 23  1  0  0  0
  1 24  1  0  0  0
  1 25  1  0  0  0
  2  3  2  0  0  0
  2 21  1  0  0  0
  3  4  1  0  0  0
  3  5  1  0  0  0
  4 26  1  0  0  0
  4 27  1  0  0  0
  4 28  1  0  0  0
  5  6  1  0  0  0
  5 19  2  0  0  0
  6  7  1  0  0  0
  6 29  1  0  0  0
  7  8  2  0  0  0
  7 18  1  0  0  0
  8  9  1  0  0  0
  8 30  1  0  0  0
  9 10  2  0  0  0
  9 31  1  0  0  0
 10 11  1  0  0  0
 10 12  1  0  0  0
 12 13  1  0  0  0
 12 18  2  0  0  0
 13 14  2  0  0  0
 13 15  1  0  0  0
 15 16  1  0  0  0
 15 17  1  0  0  0
 16 32  1  0  0  0
 16 33  1  0  0  0
 16 34  1  0  0  0
 17 35  1  0  0  0
 17 36  1  0  0  0
 17 37  1  0  0  0
 18 38  1  0  0  0
 19 20  1  0  0  0
 19 39  1  0  0  0
 20 21  2  0  0  0
 20 40  1  0  0  0
 21 22  1  0  0  0
M  END
> <energy>
39.5151

> <i_ionizer_Ion_state_n>
0

> <i_ionizer_Tot_Q>
0

> <s_ionizer_Ion_centers>


> <s_ionizer_Ion_types>


> <s_ionizer_Ion_ctrs_in>


> <r_ionizer_Ionization_penalty>
0

> <r_ionizer_Ionization_penalty_charging>
0

> <r_ionizer_Ionization_penalty_neutral>
0

$$$$
ZINC001211855979
                    3D
 Schrodinger Suite 2019-4.
 48 50  0  0  1  0            999 V2000
    1.4794   -1.2380    3.7021 C   0  0  0  0  0  0
    2.2917   -1.8414    2.6942 O   0  0  0  0  0  0
    1.6052   -1.9589    1.5123 C   0  0  0  0  0  0
    0.6845   -3.0005    1.3588 C   0  0  0  0  0  0
   -0.0089   -3.1517    0.1571 C   0  0  0  0  0  0
    0.2102   -2.2554   -0.8889 C   0  0  0  0  0  0
   -0.5473   -2.3505   -2.0892 N   0  0  0  0  0  0
   -1.3571   -1.2437   -2.4670 C   0  0  0  0  0  0
   -1.2519   -0.6541   -3.7327 C   0  0  0  0  0  0
   -1.9798    0.5058   -4.0254 C   0  0  0  0  0  0
   -2.8255    1.0627   -3.0652 C   0  0  0  0  0  0
   -3.4843    2.1882   -3.3595 F   0  0  0  0  0  0
   -2.9595    0.4581   -1.8216 C   0  0  0  0  0  0
   -3.8804    0.9953   -0.8095 C   0  0  0  0  0  0
   -5.0822    0.8538   -1.0117 O   0  0  0  0  0  0
   -3.3394    1.5659    0.3417 N   0  0  0  0  0  0
   -1.9142    1.7449    0.5805 C   0  0  0  0  0  0
   -4.2308    1.8789    1.4460 C   0  0  0  0  0  0
   -2.2465   -0.7031   -1.5301 C   0  0  0  0  0  0
    1.1675   -1.2414   -0.7396 C   0  0  0  0  0  0
    1.8805   -1.0785    0.4557 C   0  0  0  0  0  0
    2.8637    0.0033    0.5536 C   0  0  0  0  0  0
    2.4596    1.3221    0.8166 C   0  0  0  0  0  0
    3.3927    2.3639    0.8405 C   0  0  0  0  0  0
    4.7417    2.0990    0.6026 C   0  0  0  0  0  0
    5.1568    0.7925    0.3462 C   0  0  0  0  0  0
    4.2249   -0.2488    0.3270 C   0  0  0  0  0  0
    2.1357   -0.9304    4.5244 H   0  0  0  0  0  0
    0.9599   -0.3448    3.3318 H   0  0  0  0  0  0
    0.7561   -1.9606    4.0977 H   0  0  0  0  0  0
    0.5117   -3.6963    2.1726 H   0  0  0  0  0  0
   -0.7336   -3.9533    0.0410 H   0  0  0  0  0  0
    0.0877   -2.5817   -2.8510 H   0  0  0  0  0  0
   -0.5873   -1.0670   -4.4894 H   0  0  0  0  0  0
   -1.8876    0.9850   -4.9967 H   0  0  0  0  0  0
   -1.5406    0.8951    1.1607 H   0  0  0  0  0  0
   -1.7510    2.6665    1.1479 H   0  0  0  0  0  0
   -1.3546    1.8216   -0.3537 H   0  0  0  0  0  0
   -4.0681    2.9161    1.7513 H   0  0  0  0  0  0
   -5.2827    1.7531    1.1751 H   0  0  0  0  0  0
   -4.0008    1.2133    2.2821 H   0  0  0  0  0  0
   -2.3650   -1.1855   -0.5620 H   0  0  0  0  0  0
    1.3504   -0.5549   -1.5618 H   0  0  0  0  0  0
    1.4110    1.5478    0.9972 H   0  0  0  0  0  0
    3.0673    3.3824    1.0388 H   0  0  0  0  0  0
    5.4694    2.9082    0.6171 H   0  0  0  0  0  0
    6.2089    0.5808    0.1593 H   0  0  0  0  0  0
    4.5629   -1.2635    0.1230 H   0  0  0  0  0  0
  1  2  1  0  0  0
  1 28  1  0  0  0
  1 29  1  0  0  0
  1 30  1  0  0  0
  2  3  1  0  0  0
  3  4  2  0  0  0
  3 21  1  0  0  0
  4  5  1  0  0  0
  4 31  1  0  0  0
  5  6  2  0  0  0
  5 32  1  0  0  0
  6  7  1  0  0  0
  6 20  1  0  0  0
  7  8  1  0  0  0
  7 33  1  0  0  0
  8  9  2  0  0  0
  8 19  1  0  0  0
  9 10  1  0  0  0
  9 34  1  0  0  0
 10 11  2  0  0  0
 10 35  1  0  0  0
 11 12  1  0  0  0
 11 13  1  0  0  0
 13 14  1  0  0  0
 13 19  2  0  0  0
 14 15  2  0  0  0
 14 16  1  0  0  0
 16 17  1  0  0  0
 16 18  1  0  0  0
 17 36  1  0  0  0
 17 37  1  0  0  0
 17 38  1  0  0  0
 18 39  1  0  0  0
 18 40  1  0  0  0
 18 41  1  0  0  0
 19 42  1  0  0  0
 20 21  2  0  0  0
 20 43  1  0  0  0
 21 22  1  0  0  0
 22 23  2  0  0  0
 22 27  1  0  0  0
 23 24  1  0  0  0
 23 44  1  0  0  0
 24 25  2  0  0  0
 24 45  1  0  0  0
 25 26  1  0  0  0
 25 46  1  0  0  0
 26 27  2  0  0  0
 26 47  1  0  0  0
 27 48  1  0  0  0
M  END
> <energy>
67.2114

> <i_ionizer_Ion_state_n>
0

> <i_ionizer_Tot_Q>
0

> <s_ionizer_Ion_centers>


> <s_ionizer_Ion_types>


> <s_ionizer_Ion_ctrs_in>


> <r_ionizer_Ionization_penalty>
0

> <r_ionizer_Ionization_penalty_charging>
0

> <r_ionizer_Ionization_penalty_neutral>
0

$$$$
ZINC001211856041
                    3D
 Schrodinger Suite 2019-4.
 48 50  0  0  1  0            999 V2000
   -1.5207   -4.2828   -0.0777 C   0  0  0  0  0  0
   -0.5674   -3.9433    0.9293 O   0  0  0  0  0  0
    0.3514   -3.0387    0.4721 C   0  0  0  0  0  0
    1.2271   -3.3339   -0.5658 C   0  0  0  0  0  0
    2.1584   -2.3782   -0.9744 C   0  0  0  0  0  0
    2.2293   -1.1178   -0.3530 C   0  0  0  0  0  0
    3.2101   -0.1375   -0.8441 C   0  0  0  0  0  0
    4.3903    0.1209   -0.1289 C   0  0  0  0  0  0
    5.3011    1.0794   -0.5777 C   0  0  0  0  0  0
    5.0477    1.7877   -1.7503 C   0  0  0  0  0  0
    3.8882    1.5325   -2.4793 C   0  0  0  0  0  0
    2.9748    0.5760   -2.0297 C   0  0  0  0  0  0
    1.3485   -0.8343    0.7221 C   0  0  0  0  0  0
    1.3146    0.4649    1.3228 N   0  0  0  0  0  0
    0.2878    1.4014    1.0264 C   0  0  0  0  0  0
    0.5942    2.5742    0.3154 C   0  0  0  0  0  0
   -0.4136    3.4734   -0.0510 C   0  0  0  0  0  0
   -1.7351    3.2072    0.2932 C   0  0  0  0  0  0
   -2.6899    4.0649   -0.0931 F   0  0  0  0  0  0
   -2.0498    2.0522    0.9971 C   0  0  0  0  0  0
   -3.4386    1.7789    1.3917 C   0  0  0  0  0  0
   -3.9202    2.4716    2.2848 O   0  0  0  0  0  0
   -4.1037    0.7186    0.7781 N   0  0  0  0  0  0
   -5.3844    0.2899    1.3151 C   0  0  0  0  0  0
   -3.5673   -0.0660   -0.3247 C   0  0  0  0  0  0
   -1.0437    1.1556    1.3737 C   0  0  0  0  0  0
    0.4280   -1.8132    1.1289 C   0  0  0  0  0  0
   -2.3244   -4.8511    0.4002 H   0  0  0  0  0  0
   -1.9625   -3.3845   -0.5233 H   0  0  0  0  0  0
   -1.0752   -4.9171   -0.8502 H   0  0  0  0  0  0
    1.2072   -4.3049   -1.0502 H   0  0  0  0  0  0
    2.8401   -2.6176   -1.7870 H   0  0  0  0  0  0
    4.6028   -0.4277    0.7867 H   0  0  0  0  0  0
    6.2105    1.2697   -0.0125 H   0  0  0  0  0  0
    5.7571    2.5339   -2.0985 H   0  0  0  0  0  0
    3.6938    2.0781   -3.3991 H   0  0  0  0  0  0
    2.0686    0.3963   -2.6044 H   0  0  0  0  0  0
    2.2179    0.9158    1.1756 H   0  0  0  0  0  0
    1.6206    2.7894    0.0232 H   0  0  0  0  0  0
   -0.1749    4.3748   -0.6072 H   0  0  0  0  0  0
   -5.7190    0.9189    2.1432 H   0  0  0  0  0  0
   -5.2854   -0.7396    1.6733 H   0  0  0  0  0  0
   -6.1339    0.3276    0.5193 H   0  0  0  0  0  0
   -4.3761   -0.3178   -1.0172 H   0  0  0  0  0  0
   -3.1350   -0.9849    0.0797 H   0  0  0  0  0  0
   -2.8042    0.4831   -0.8799 H   0  0  0  0  0  0
   -1.3113    0.2824    1.9587 H   0  0  0  0  0  0
   -0.2336   -1.6287    1.9685 H   0  0  0  0  0  0
  1  2  1  0  0  0
  1 28  1  0  0  0
  1 29  1  0  0  0
  1 30  1  0  0  0
  2  3  1  0  0  0
  3  4  2  0  0  0
  3 27  1  0  0  0
  4  5  1  0  0  0
  4 31  1  0  0  0
  5  6  2  0  0  0
  5 32  1  0  0  0
  6  7  1  0  0  0
  6 13  1  0  0  0
  7  8  2  0  0  0
  7 12  1  0  0  0
  8  9  1  0  0  0
  8 33  1  0  0  0
  9 10  2  0  0  0
  9 34  1  0  0  0
 10 11  1  0  0  0
 10 35  1  0  0  0
 11 12  2  0  0  0
 11 36  1  0  0  0
 12 37  1  0  0  0
 13 14  1  0  0  0
 13 27  2  0  0  0
 14 15  1  0  0  0
 14 38  1  0  0  0
 15 16  2  0  0  0
 15 26  1  0  0  0
 16 17  1  0  0  0
 16 39  1  0  0  0
 17 18  2  0  0  0
 17 40  1  0  0  0
 18 19  1  0  0  0
 18 20  1  0  0  0
 20 21  1  0  0  0
 20 26  2  0  0  0
 21 22  2  0  0  0
 21 23  1  0  0  0
 23 24  1  0  0  0
 23 25  1  0  0  0
 24 41  1  0  0  0
 24 42  1  0  0  0
 24 43  1  0  0  0
 25 44  1  0  0  0
 25 45  1  0  0  0
 25 46  1  0  0  0
 26 47  1  0  0  0
 27 48  1  0  0  0
M  END
> <energy>
68.5119

> <i_ionizer_Ion_state_n>
0

> <i_ionizer_Tot_Q>
0

> <s_ionizer_Ion_centers>


> <s_ionizer_Ion_types>


> <s_ionizer_Ion_ctrs_in>


> <r_ionizer_Ionization_penalty>
0

> <r_ionizer_Ionization_penalty_charging>
0

> <r_ionizer_Ionization_penalty_neutral>
0

$$$$
ZINC001211856059
                    3D
 Schrodinger Suite 2019-4.
 34 35  0  0  1  0            999 V2000
   -3.7466   -0.4187    0.5723 C   0  0  0  0  0  0
   -3.8953    0.6352   -0.4223 N   0  0  0  0  0  0
   -5.1557    0.6691   -1.1481 C   0  0  0  0  0  0
   -2.9159    1.5742   -0.7405 C   0  0  0  0  0  0
   -3.0824    2.5178   -1.5077 O   0  0  0  0  0  0
   -1.5685    1.3891   -0.1814 C   0  0  0  0  0  0
   -0.7488    0.3768   -0.6920 C   0  0  0  0  0  0
    0.5567    0.2164   -0.2036 C   0  0  0  0  0  0
    1.3387   -0.8511   -0.7115 N   0  0  0  0  0  0
    2.6449   -1.2170   -0.3056 C   0  0  0  0  0  0
    2.8808   -1.6609    1.0025 C   0  0  0  0  0  0
    4.1759   -1.9842    1.4112 C   0  0  0  0  0  0
    4.4736   -2.6094    3.1669 Br  0  0  0  0  0  0
    5.2561   -1.8331    0.5431 C   0  0  0  0  0  0
    5.0386   -1.3704   -0.7544 C   0  0  0  0  0  0
    3.7412   -1.0709   -1.1762 C   0  0  0  0  0  0
    3.5117   -0.4876   -2.7905 Cl  0  0  0  0  0  0
    1.0075    1.0833    0.8055 C   0  0  0  0  0  0
    0.1852    2.0991    1.3051 C   0  0  0  0  0  0
   -1.1027    2.2478    0.8066 C   0  0  0  0  0  0
   -1.8903    3.2010    1.3204 F   0  0  0  0  0  0
   -4.6747   -0.5004    1.1437 H   0  0  0  0  0  0
   -3.5462   -1.3621    0.0597 H   0  0  0  0  0  0
   -2.9383   -0.2099    1.2746 H   0  0  0  0  0  0
   -5.2867   -0.2805   -1.6756 H   0  0  0  0  0  0
   -5.1858    1.4870   -1.8727 H   0  0  0  0  0  0
   -5.9731    0.8018   -0.4333 H   0  0  0  0  0  0
   -1.1308   -0.2821   -1.4699 H   0  0  0  0  0  0
    1.2687   -0.8783   -1.7304 H   0  0  0  0  0  0
    2.0477   -1.7599    1.6927 H   0  0  0  0  0  0
    6.2679   -2.0567    0.8689 H   0  0  0  0  0  0
    5.8811   -1.2342   -1.4283 H   0  0  0  0  0  0
    2.0173    0.9980    1.1949 H   0  0  0  0  0  0
    0.5483    2.7711    2.0759 H   0  0  0  0  0  0
  1  2  1  0  0  0
  1 22  1  0  0  0
  1 23  1  0  0  0
  1 24  1  0  0  0
  2  3  1  0  0  0
  2  4  1  0  0  0
  3 25  1  0  0  0
  3 26  1  0  0  0
  3 27  1  0  0  0
  4  5  2  0  0  0
  4  6  1  0  0  0
  6  7  2  0  0  0
  6 20  1  0  0  0
  7  8  1  0  0  0
  7 28  1  0  0  0
  8  9  1  0  0  0
  8 18  2  0  0  0
  9 10  1  0  0  0
  9 29  1  0  0  0
 10 11  2  0  0  0
 10 16  1  0  0  0
 11 12  1  0  0  0
 11 30  1  0  0  0
 12 13  1  0  0  0
 12 14  2  0  0  0
 14 15  1  0  0  0
 14 31  1  0  0  0
 15 16  2  0  0  0
 15 32  1  0  0  0
 16 17  1  0  0  0
 18 19  1  0  0  0
 18 33  1  0  0  0
 19 20  2  0  0  0
 19 34  1  0  0  0
 20 21  1  0  0  0
M  END
> <energy>
40.1853

> <i_ionizer_Ion_state_n>
0

> <i_ionizer_Tot_Q>
0

> <s_ionizer_Ion_centers>


> <s_ionizer_Ion_types>


> <s_ionizer_Ion_ctrs_in>


> <r_ionizer_Ionization_penalty>
0

> <r_ionizer_Ionization_penalty_charging>
0

> <r_ionizer_Ionization_penalty_neutral>
0

$$$$
ZINC001211856069
                    3D
 Schrodinger Suite 2019-4.
 52 54  0  0  1  0            999 V2000
    3.5533    3.2507   -1.9354 C   0  0  0  0  0  0
    3.7766    2.3007   -0.8589 N   0  0  0  0  0  0
    5.0809    1.6575   -0.8383 C   0  0  0  0  0  0
    2.7282    1.9835    0.0017 C   0  0  0  0  0  0
    1.6093    2.4865   -0.0449 O   0  0  0  0  0  0
    2.9473    0.9041    0.9717 C   0  0  0  0  0  0
    2.5781   -0.3856    0.5844 C   0  0  0  0  0  0
    2.7377   -1.4711    1.4663 C   0  0  0  0  0  0
    2.2114   -2.7584    1.1104 N   0  0  0  0  0  0
    0.8195   -2.7823    0.7694 C   0  0  0  0  0  0
   -0.1244   -2.6487    1.7879 C   0  0  0  0  0  0
   -1.3990   -2.1819    1.4897 C   0  0  0  0  0  0
   -1.7725   -1.8606    0.1713 C   0  0  0  0  0  0
   -2.9724   -1.1325   -0.0134 N   0  0  0  0  0  0
   -2.7407    0.2890    0.3802 C   0  0  0  0  0  0
   -2.8654    1.2895   -0.7703 C   0  0  0  0  0  0
   -4.2987    1.5413   -1.2674 C   0  0  0  0  0  0
   -5.3529    0.5476   -0.7849 C   0  0  0  0  0  0
   -5.1357   -0.8910   -1.2544 C   0  0  0  0  0  0
   -3.6846   -1.3956   -1.2729 C   0  0  0  0  0  0
   -0.8610   -2.1388   -0.8561 C   0  0  0  0  0  0
    0.4281   -2.5853   -0.5619 C   0  0  0  0  0  0
    3.3255   -1.2440    2.7201 C   0  0  0  0  0  0
    3.7054    0.0522    3.1030 C   0  0  0  0  0  0
    3.4908    1.1251    2.2299 C   0  0  0  0  0  0
    3.8578    2.3565    2.6139 F   0  0  0  0  0  0
    4.3280    4.0227   -1.8836 H   0  0  0  0  0  0
    3.6474    2.7239   -2.8919 H   0  0  0  0  0  0
    2.5682    3.7250   -1.8902 H   0  0  0  0  0  0
    5.1746    1.0263   -1.7243 H   0  0  0  0  0  0
    5.2484    1.0365    0.0389 H   0  0  0  0  0  0
    5.8422    2.4397   -0.8572 H   0  0  0  0  0  0
    2.1298   -0.5296   -0.3948 H   0  0  0  0  0  0
    2.3586   -3.3778    1.9064 H   0  0  0  0  0  0
    0.1639   -2.7987    2.8233 H   0  0  0  0  0  0
   -2.0924   -1.9942    2.3006 H   0  0  0  0  0  0
   -3.4319    0.5427    1.1923 H   0  0  0  0  0  0
   -1.7447    0.4377    0.8218 H   0  0  0  0  0  0
   -2.2328    0.9751   -1.6099 H   0  0  0  0  0  0
   -2.4456    2.2529   -0.4474 H   0  0  0  0  0  0
   -4.3043    1.5859   -2.3635 H   0  0  0  0  0  0
   -4.6050    2.5417   -0.9319 H   0  0  0  0  0  0
   -5.4099    0.5732    0.3091 H   0  0  0  0  0  0
   -6.3419    0.8796   -1.1245 H   0  0  0  0  0  0
   -5.7550   -1.5560   -0.6363 H   0  0  0  0  0  0
   -5.5270   -0.9796   -2.2771 H   0  0  0  0  0  0
   -3.1523   -0.9608   -2.1286 H   0  0  0  0  0  0
   -3.7153   -2.4811   -1.4458 H   0  0  0  0  0  0
   -1.0979   -1.9027   -1.8896 H   0  0  0  0  0  0
    1.1644   -2.6725   -1.3538 H   0  0  0  0  0  0
    3.4537   -2.0580    3.4309 H   0  0  0  0  0  0
    4.1339    0.2399    4.0858 H   0  0  0  0  0  0
  1  2  1  0  0  0
  1 27  1  0  0  0
  1 28  1  0  0  0
  1 29  1  0  0  0
  2  3  1  0  0  0
  2  4  1  0  0  0
  3 30  1  0  0  0
  3 31  1  0  0  0
  3 32  1  0  0  0
  4  5  2  0  0  0
  4  6  1  0  0  0
  6  7  2  0  0  0
  6 25  1  0  0  0
  7  8  1  0  0  0
  7 33  1  0  0  0
  8  9  1  0  0  0
  8 23  2  0  0  0
  9 10  1  0  0  0
  9 34  1  0  0  0
 10 11  2  0  0  0
 10 22  1  0  0  0
 11 12  1  0  0  0
 11 35  1  0  0  0
 12 13  2  0  0  0
 12 36  1  0  0  0
 13 14  1  0  0  0
 13 21  1  0  0  0
 14 15  1  0  0  0
 14 20  1  0  0  0
 15 16  1  0  0  0
 15 37  1  0  0  0
 15 38  1  0  0  0
 16 17  1  0  0  0
 16 39  1  0  0  0
 16 40  1  0  0  0
 17 18  1  0  0  0
 17 41  1  0  0  0
 17 42  1  0  0  0
 18 19  1  0  0  0
 18 43  1  0  0  0
 18 44  1  0  0  0
 19 20  1  0  0  0
 19 45  1  0  0  0
 19 46  1  0  0  0
 20 47  1  0  0  0
 20 48  1  0  0  0
 21 22  2  0  0  0
 21 49  1  0  0  0
 22 50  1  0  0  0
 23 24  1  0  0  0
 23 51  1  0  0  0
 24 25  2  0  0  0
 24 52  1  0  0  0
 25 26  1  0  0  0
M  END
> <energy>
52.3458

> <i_ionizer_Ion_state_n>
0

> <i_ionizer_Tot_Q>
0

> <s_ionizer_Ion_centers>


> <s_ionizer_Ion_types>


> <s_ionizer_Ion_ctrs_in>


> <r_ionizer_Ionization_penalty>
0.00296205

> <r_ionizer_Ionization_penalty_charging>
0

> <r_ionizer_Ionization_penalty_neutral>
0.00296205

$$$$
ZINC001211856084
                    3D
 Schrodinger Suite 2019-4.
 48 50  0  0  1  0            999 V2000
    3.0555   -1.7805    2.6755 C   0  0  0  0  0  0
    4.0013   -1.1453    1.8142 O   0  0  0  0  0  0
    3.8152   -1.5309    0.5086 C   0  0  0  0  0  0
    4.1885   -2.8220    0.1157 C   0  0  0  0  0  0
    4.0325   -3.2160   -1.2127 C   0  0  0  0  0  0
    3.5276   -2.3148   -2.1484 C   0  0  0  0  0  0
    3.1652   -1.0238   -1.7542 C   0  0  0  0  0  0
    3.3072   -0.6056   -0.4208 C   0  0  0  0  0  0
    2.8929    0.7529   -0.0395 C   0  0  0  0  0  0
    3.8314    1.7296    0.3225 C   0  0  0  0  0  0
    3.4186    3.0100    0.6901 C   0  0  0  0  0  0
    2.0590    3.3288    0.7120 C   0  0  0  0  0  0
    1.1023    2.3815    0.3346 C   0  0  0  0  0  0
   -0.2755    2.7154    0.4834 N   0  0  0  0  0  0
   -1.2988    2.1071   -0.2856 C   0  0  0  0  0  0
   -1.5530    2.5724   -1.5861 C   0  0  0  0  0  0
   -2.4794    1.9237   -2.4065 C   0  0  0  0  0  0
   -3.1312    0.7868   -1.9373 C   0  0  0  0  0  0
   -3.9960    0.1573   -2.7467 F   0  0  0  0  0  0
   -2.8813    0.3152   -0.6520 C   0  0  0  0  0  0
   -3.4715   -0.9478   -0.1874 C   0  0  0  0  0  0
   -2.7204   -1.9175   -0.1268 O   0  0  0  0  0  0
   -4.8032   -0.9684    0.2228 N   0  0  0  0  0  0
   -5.5853    0.2368    0.4496 C   0  0  0  0  0  0
   -5.3088   -2.1937    0.8248 C   0  0  0  0  0  0
   -1.9635    0.9674    0.1755 C   0  0  0  0  0  0
    1.5298    1.0958   -0.0258 C   0  0  0  0  0  0
    3.3853   -2.7951    2.9222 H   0  0  0  0  0  0
    3.0105   -1.2050    3.6045 H   0  0  0  0  0  0
    2.0483   -1.7969    2.2422 H   0  0  0  0  0  0
    4.6087   -3.5134    0.8388 H   0  0  0  0  0  0
    4.3087   -4.2207   -1.5206 H   0  0  0  0  0  0
    3.4180   -2.6151   -3.1874 H   0  0  0  0  0  0
    2.7706   -0.3357   -2.5011 H   0  0  0  0  0  0
    4.8918    1.4844    0.3335 H   0  0  0  0  0  0
    4.1562    3.7574    0.9675 H   0  0  0  0  0  0
    1.7462    4.3239    1.0169 H   0  0  0  0  0  0
   -0.4851    2.5807    1.4743 H   0  0  0  0  0  0
   -1.0124    3.4415   -1.9553 H   0  0  0  0  0  0
   -2.6699    2.2832   -3.4155 H   0  0  0  0  0  0
   -5.3747    0.6063    1.4587 H   0  0  0  0  0  0
   -6.6499    0.0032    0.3566 H   0  0  0  0  0  0
   -5.3442    1.0216   -0.2684 H   0  0  0  0  0  0
   -4.7407   -3.0687    0.4969 H   0  0  0  0  0  0
   -6.3556   -2.3319    0.5432 H   0  0  0  0  0  0
   -5.2348   -2.1138    1.9134 H   0  0  0  0  0  0
   -1.7348    0.5517    1.1550 H   0  0  0  0  0  0
    0.7986    0.3282   -0.2751 H   0  0  0  0  0  0
  1  2  1  0  0  0
  1 28  1  0  0  0
  1 29  1  0  0  0
  1 30  1  0  0  0
  2  3  1  0  0  0
  3  4  2  0  0  0
  3  8  1  0  0  0
  4  5  1  0  0  0
  4 31  1  0  0  0
  5  6  2  0  0  0
  5 32  1  0  0  0
  6  7  1  0  0  0
  6 33  1  0  0  0
  7  8  2  0  0  0
  7 34  1  0  0  0
  8  9  1  0  0  0
  9 10  2  0  0  0
  9 27  1  0  0  0
 10 11  1  0  0  0
 10 35  1  0  0  0
 11 12  2  0  0  0
 11 36  1  0  0  0
 12 13  1  0  0  0
 12 37  1  0  0  0
 13 14  1  0  0  0
 13 27  2  0  0  0
 14 15  1  0  0  0
 14 38  1  0  0  0
 15 16  2  0  0  0
 15 26  1  0  0  0
 16 17  1  0  0  0
 16 39  1  0  0  0
 17 18  2  0  0  0
 17 40  1  0  0  0
 18 19  1  0  0  0
 18 20  1  0  0  0
 20 21  1  0  0  0
 20 26  2  0  0  0
 21 22  2  0  0  0
 21 23  1  0  0  0
 23 24  1  0  0  0
 23 25  1  0  0  0
 24 41  1  0  0  0
 24 42  1  0  0  0
 24 43  1  0  0  0
 25 44  1  0  0  0
 25 45  1  0  0  0
 25 46  1  0  0  0
 26 47  1  0  0  0
 27 48  1  0  0  0
M  END
> <energy>
67.7569

> <i_ionizer_Ion_state_n>
0

> <i_ionizer_Tot_Q>
0

> <s_ionizer_Ion_centers>


> <s_ionizer_Ion_types>


> <s_ionizer_Ion_ctrs_in>


> <r_ionizer_Ionization_penalty>
0

> <r_ionizer_Ionization_penalty_charging>
0

> <r_ionizer_Ionization_penalty_neutral>
0

$$$$
ZINC001211856100
                    3D
 Schrodinger Suite 2019-4.
 45 47  0  0  1  0            999 V2000
    3.8052   -0.1247    0.9203 C   0  0  0  0  0  0
    4.7489    0.8291    0.3545 N   0  0  0  0  0  0
    6.0619    0.3044    0.0105 C   0  0  0  0  0  0
    4.4472    2.1487    0.0110 C   0  0  0  0  0  0
    5.2189    2.9122   -0.5533 O   0  0  0  0  0  0
    3.0883    2.6437    0.2812 C   0  0  0  0  0  0
    2.0500    2.3051   -0.5939 C   0  0  0  0  0  0
    0.7607    2.8087   -0.3811 C   0  0  0  0  0  0
   -0.2838    2.4641   -1.2805 N   0  0  0  0  0  0
   -1.1595    1.3656   -1.0724 C   0  0  0  0  0  0
   -1.6552    0.6470   -2.1724 C   0  0  0  0  0  0
   -2.4490   -0.4946   -1.9896 C   0  0  0  0  0  0
   -2.7906   -0.9166   -0.6989 C   0  0  0  0  0  0
   -3.5065   -2.1652   -0.4247 C   0  0  0  0  0  0
   -2.8735   -3.4095   -0.5913 C   0  0  0  0  0  0
   -3.4873   -4.5847   -0.1500 C   0  0  0  0  0  0
   -4.7485   -4.5205    0.4356 C   0  0  0  0  0  0
   -5.3928   -5.6504    0.8488 O   0  0  0  0  0  0
   -5.4033   -3.3070    0.5868 C   0  0  0  0  0  0
   -4.7872   -2.1347    0.1483 C   0  0  0  0  0  0
   -2.3890   -0.1254    0.3853 C   0  0  0  0  0  0
   -1.6046    1.0097    0.1977 C   0  0  0  0  0  0
    0.5158    3.5942    0.7543 C   0  0  0  0  0  0
    1.5585    3.9316    1.6269 C   0  0  0  0  0  0
    2.8469    3.4690    1.3734 C   0  0  0  0  0  0
    3.8384    3.8136    2.2079 F   0  0  0  0  0  0
    3.4594   -0.7817    0.1127 H   0  0  0  0  0  0
    4.3099   -0.7254    1.6855 H   0  0  0  0  0  0
    2.9446    0.3644    1.3759 H   0  0  0  0  0  0
    6.5836    0.0346    0.9337 H   0  0  0  0  0  0
    5.9445   -0.5891   -0.6095 H   0  0  0  0  0  0
    6.6696    1.0317   -0.5325 H   0  0  0  0  0  0
    2.2582    1.6609   -1.4425 H   0  0  0  0  0  0
    0.1057    2.4038   -2.2222 H   0  0  0  0  0  0
   -1.4151    0.9601   -3.1870 H   0  0  0  0  0  0
   -2.7985   -1.0429   -2.8629 H   0  0  0  0  0  0
   -1.8744   -3.4592   -1.0223 H   0  0  0  0  0  0
   -2.9571   -5.5278   -0.2511 H   0  0  0  0  0  0
   -4.8437   -6.3888    0.5376 H   0  0  0  0  0  0
   -6.3866   -3.2751    1.0487 H   0  0  0  0  0  0
   -5.2963   -1.1854    0.2822 H   0  0  0  0  0  0
   -2.6702   -0.4066    1.3979 H   0  0  0  0  0  0
   -1.3355    1.5976    1.0701 H   0  0  0  0  0  0
   -0.4866    3.9605    0.9547 H   0  0  0  0  0  0
    1.3787    4.5546    2.4964 H   0  0  0  0  0  0
  1  2  1  0  0  0
  1 27  1  0  0  0
  1 28  1  0  0  0
  1 29  1  0  0  0
  2  3  1  0  0  0
  2  4  1  0  0  0
  3 30  1  0  0  0
  3 31  1  0  0  0
  3 32  1  0  0  0
  4  5  2  0  0  0
  4  6  1  0  0  0
  6  7  2  0  0  0
  6 25  1  0  0  0
  7  8  1  0  0  0
  7 33  1  0  0  0
  8  9  1  0  0  0
  8 23  2  0  0  0
  9 10  1  0  0  0
  9 34  1  0  0  0
 10 11  2  0  0  0
 10 22  1  0  0  0
 11 12  1  0  0  0
 11 35  1  0  0  0
 12 13  2  0  0  0
 12 36  1  0  0  0
 13 14  1  0  0  0
 13 21  1  0  0  0
 14 15  2  0  0  0
 14 20  1  0  0  0
 15 16  1  0  0  0
 15 37  1  0  0  0
 16 17  2  0  0  0
 16 38  1  0  0  0
 17 18  1  0  0  0
 17 19  1  0  0  0
 18 39  1  0  0  0
 19 20  2  0  0  0
 19 40  1  0  0  0
 20 41  1  0  0  0
 21 22  2  0  0  0
 21 42  1  0  0  0
 22 43  1  0  0  0
 23 24  1  0  0  0
 23 44  1  0  0  0
 24 25  2  0  0  0
 24 45  1  0  0  0
 25 26  1  0  0  0
M  END
> <energy>
43.2444

> <i_ionizer_Ion_state_n>
0

> <i_ionizer_Tot_Q>
0

> <s_ionizer_Ion_centers>


> <s_ionizer_Ion_types>


> <s_ionizer_Ion_ctrs_in>


> <r_ionizer_Ionization_penalty>
0.00148639

> <r_ionizer_Ionization_penalty_charging>
0

> <r_ionizer_Ionization_penalty_neutral>
0.00148639

$$$$
ZINC001211856146
                    3D
 Schrodinger Suite 2019-4.
 52 53  0  0  1  0            999 V2000
   -1.7208    3.4818    0.4092 C   0  0  0  0  0  0
   -1.7236    2.1412    1.0851 C   0  0  0  0  0  0
   -2.8798    1.3542    0.9857 C   0  0  0  0  0  0
   -2.9244    0.0703    1.5350 C   0  0  0  0  0  0
   -4.1208   -0.7526    1.2348 C   0  0  0  0  0  0
   -5.2294   -0.2967    1.0043 O   0  0  0  0  0  0
   -3.7890   -2.0637    1.1751 O   0  0  0  0  0  0
   -3.7086   -2.6766   -0.1401 C   0  0  0  0  0  0
   -4.9856   -2.5268   -0.9800 C   0  0  0  0  0  0
   -2.4913   -2.1300   -0.8959 C   0  0  0  0  0  0
   -3.4770   -4.1659    0.1342 C   0  0  0  0  0  0
   -1.8279   -0.4230    2.2448 C   0  0  0  0  0  0
   -0.6618    0.3446    2.3325 C   0  0  0  0  0  0
   -0.5919    1.6217    1.7424 C   0  0  0  0  0  0
    0.6691    2.3030    1.6884 N   0  0  0  0  0  0
    1.4849    2.1533    0.5294 C   0  0  0  0  0  0
    1.5234    3.1849   -0.4280 C   0  0  0  0  0  0
    2.2450    3.0385   -1.6133 C   0  0  0  0  0  0
    2.9609    1.8704   -1.8344 C   0  0  0  0  0  0
    3.7003    1.7601   -2.9467 F   0  0  0  0  0  0
    2.9343    0.8487   -0.8894 C   0  0  0  0  0  0
    3.7094   -0.3576   -1.1622 C   0  0  0  0  0  0
    3.1737   -1.2219   -1.8544 O   0  0  0  0  0  0
    5.0009   -0.4238   -0.6501 N   0  0  0  0  0  0
    5.9215   -1.3276   -1.3123 C   0  0  0  0  0  0
    5.5916    0.6055    0.1994 C   0  0  0  0  0  0
    2.1803    0.9613    0.2795 C   0  0  0  0  0  0
   -2.7249    3.9263    0.4084 H   0  0  0  0  0  0
   -1.3977    3.3634   -0.6305 H   0  0  0  0  0  0
   -1.0656    4.1922    0.9233 H   0  0  0  0  0  0
   -3.7402    1.7259    0.4286 H   0  0  0  0  0  0
   -5.1901   -1.4820   -1.2333 H   0  0  0  0  0  0
   -5.8599   -2.9037   -0.4387 H   0  0  0  0  0  0
   -4.8978   -3.0798   -1.9217 H   0  0  0  0  0  0
   -2.5978   -1.0618   -1.1126 H   0  0  0  0  0  0
   -2.3396   -2.6506   -1.8472 H   0  0  0  0  0  0
   -1.5802   -2.2471   -0.2972 H   0  0  0  0  0  0
   -3.2625   -4.7174   -0.7862 H   0  0  0  0  0  0
   -4.3560   -4.6124    0.6141 H   0  0  0  0  0  0
   -2.6393   -4.3022    0.8255 H   0  0  0  0  0  0
   -1.8552   -1.4182    2.6881 H   0  0  0  0  0  0
    0.2062   -0.0905    2.8252 H   0  0  0  0  0  0
    1.2142    1.9714    2.4883 H   0  0  0  0  0  0
    0.9853    4.1118   -0.2519 H   0  0  0  0  0  0
    2.2576    3.8239   -2.3586 H   0  0  0  0  0  0
    6.5249   -0.7480   -2.0150 H   0  0  0  0  0  0
    6.5718   -1.7799   -0.5624 H   0  0  0  0  0  0
    5.4084   -2.1197   -1.8679 H   0  0  0  0  0  0
    6.4320    0.1815    0.7488 H   0  0  0  0  0  0
    4.8697    0.9709    0.9335 H   0  0  0  0  0  0
    5.9349    1.4456   -0.4107 H   0  0  0  0  0  0
    2.1381    0.1270    0.9770 H   0  0  0  0  0  0
  1  2  1  0  0  0
  1 28  1  0  0  0
  1 29  1  0  0  0
  1 30  1  0  0  0
  2  3  2  0  0  0
  2 14  1  0  0  0
  3  4  1  0  0  0
  3 31  1  0  0  0
  4  5  1  0  0  0
  4 12  2  0  0  0
  5  6  2  0  0  0
  5  7  1  0  0  0
  7  8  1  0  0  0
  8  9  1  0  0  0
  8 10  1  0  0  0
  8 11  1  0  0  0
  9 32  1  0  0  0
  9 33  1  0  0  0
  9 34  1  0  0  0
 10 35  1  0  0  0
 10 36  1  0  0  0
 10 37  1  0  0  0
 11 38  1  0  0  0
 11 39  1  0  0  0
 11 40  1  0  0  0
 12 13  1  0  0  0
 12 41  1  0  0  0
 13 14  2  0  0  0
 13 42  1  0  0  0
 14 15  1  0  0  0
 15 16  1  0  0  0
 15 43  1  0  0  0
 16 17  2  0  0  0
 16 27  1  0  0  0
 17 18  1  0  0  0
 17 44  1  0  0  0
 18 19  2  0  0  0
 18 45  1  0  0  0
 19 20  1  0  0  0
 19 21  1  0  0  0
 21 22  1  0  0  0
 21 27  2  0  0  0
 22 23  2  0  0  0
 22 24  1  0  0  0
 24 25  1  0  0  0
 24 26  1  0  0  0
 25 46  1  0  0  0
 25 47  1  0  0  0
 25 48  1  0  0  0
 26 49  1  0  0  0
 26 50  1  0  0  0
 26 51  1  0  0  0
 27 52  1  0  0  0
M  END
> <energy>
76.1919

> <i_ionizer_Ion_state_n>
0

> <i_ionizer_Tot_Q>
0

> <s_ionizer_Ion_centers>


> <s_ionizer_Ion_types>


> <s_ionizer_Ion_ctrs_in>


> <r_ionizer_Ionization_penalty>
0

> <r_ionizer_Ionization_penalty_charging>
0

> <r_ionizer_Ionization_penalty_neutral>
0

$$$$
ZINC001211856150
                    3D
 Schrodinger Suite 2019-4.
 39 40  0  0  1  0            999 V2000
    4.7562    3.1675    0.8015 C   0  0  0  0  0  0
    4.5861    1.9970    1.7373 C   0  0  0  0  0  0
    5.1041    1.9881    2.8535 O   0  0  0  0  0  0
    3.7164    0.8581    1.3386 C   0  0  0  0  0  0
    2.9628    0.2252    2.3320 C   0  0  0  0  0  0
    2.0978   -0.8187    1.9962 C   0  0  0  0  0  0
    1.1187   -1.5017    3.2502 Cl  0  0  0  0  0  0
    1.9744   -1.2630    0.6649 C   0  0  0  0  0  0
    1.0141   -2.2680    0.3284 N   0  0  0  0  0  0
   -0.1048   -2.0165   -0.5102 C   0  0  0  0  0  0
   -0.6267   -3.0704   -1.2773 C   0  0  0  0  0  0
   -1.7747   -2.8828   -2.0548 C   0  0  0  0  0  0
   -2.4214   -1.6494   -2.0458 C   0  0  0  0  0  0
   -3.5406   -1.4960   -2.7660 F   0  0  0  0  0  0
   -1.9164   -0.6074   -1.2759 C   0  0  0  0  0  0
   -2.5988    0.6924   -1.2602 C   0  0  0  0  0  0
   -2.1186    1.5987   -1.9319 O   0  0  0  0  0  0
   -3.7307    0.8186   -0.4586 N   0  0  0  0  0  0
   -4.2371   -0.2428    0.3955 C   0  0  0  0  0  0
   -4.6152    1.9521   -0.6759 C   0  0  0  0  0  0
   -0.7656   -0.7795   -0.5051 C   0  0  0  0  0  0
    2.7678   -0.6315   -0.3147 C   0  0  0  0  0  0
    2.7348   -1.1207   -1.9749 Cl  0  0  0  0  0  0
    3.6295    0.4182    0.0191 C   0  0  0  0  0  0
    5.7955    3.5019    0.8273 H   0  0  0  0  0  0
    4.1052    3.9768    1.1390 H   0  0  0  0  0  0
    4.5079    2.9379   -0.2321 H   0  0  0  0  0  0
    3.0368    0.5596    3.3641 H   0  0  0  0  0  0
    0.6659   -2.6910    1.1939 H   0  0  0  0  0  0
   -0.1185   -4.0342   -1.2928 H   0  0  0  0  0  0
   -2.1616   -3.6921   -2.6684 H   0  0  0  0  0  0
   -4.8941   -0.8886   -0.1906 H   0  0  0  0  0  0
   -4.7919    0.1959    1.2284 H   0  0  0  0  0  0
   -3.4234   -0.8374    0.8132 H   0  0  0  0  0  0
   -4.9619    2.3269    0.2940 H   0  0  0  0  0  0
   -5.4759    1.6020   -1.2549 H   0  0  0  0  0  0
   -4.1288    2.7626   -1.2272 H   0  0  0  0  0  0
   -0.4053    0.0484    0.1027 H   0  0  0  0  0  0
    4.2380    0.8639   -0.7624 H   0  0  0  0  0  0
  1  2  1  0  0  0
  1 25  1  0  0  0
  1 26  1  0  0  0
  1 27  1  0  0  0
  2  3  2  0  0  0
  2  4  1  0  0  0
  4  5  2  0  0  0
  4 24  1  0  0  0
  5  6  1  0  0  0
  5 28  1  0  0  0
  6  7  1  0  0  0
  6  8  2  0  0  0
  8  9  1  0  0  0
  8 22  1  0  0  0
  9 10  1  0  0  0
  9 29  1  0  0  0
 10 11  2  0  0  0
 10 21  1  0  0  0
 11 12  1  0  0  0
 11 30  1  0  0  0
 12 13  2  0  0  0
 12 31  1  0  0  0
 13 14  1  0  0  0
 13 15  1  0  0  0
 15 16  1  0  0  0
 15 21  2  0  0  0
 16 17  2  0  0  0
 16 18  1  0  0  0
 18 19  1  0  0  0
 18 20  1  0  0  0
 19 32  1  0  0  0
 19 33  1  0  0  0
 19 34  1  0  0  0
 20 35  1  0  0  0
 20 36  1  0  0  0
 20 37  1  0  0  0
 21 38  1  0  0  0
 22 23  1  0  0  0
 22 24  2  0  0  0
 24 39  1  0  0  0
M  END
> <energy>
61.9705

> <i_ionizer_Ion_state_n>
0

> <i_ionizer_Tot_Q>
0

> <s_ionizer_Ion_centers>


> <s_ionizer_Ion_types>


> <s_ionizer_Ion_ctrs_in>


> <r_ionizer_Ionization_penalty>
0

> <r_ionizer_Ionization_penalty_charging>
0

> <r_ionizer_Ionization_penalty_neutral>
0

$$$$
ZINC001211856182
                    3D
 Schrodinger Suite 2019-4.
 37 38  0  0  1  0            999 V2000
    2.3508   -1.6586    0.1254 C   0  0  0  0  0  0
    2.9351   -0.8598   -0.9398 N   0  0  0  0  0  0
    3.5815   -1.6014   -2.0110 C   0  0  0  0  0  0
    2.9043    0.5357   -1.0030 C   0  0  0  0  0  0
    3.5057    1.1951   -1.8429 O   0  0  0  0  0  0
    2.0252    1.2550   -0.0583 C   0  0  0  0  0  0
    0.6549    0.9698   -0.0534 C   0  0  0  0  0  0
   -0.2151    1.6648    0.7931 C   0  0  0  0  0  0
   -1.6205    1.4750    0.6980 N   0  0  0  0  0  0
   -2.2140    0.1818    0.6439 C   0  0  0  0  0  0
   -1.9356   -0.7166    1.6926 C   0  0  0  0  0  0
   -2.4891   -1.9941    1.7092 C   0  0  0  0  0  0
   -2.1453   -3.0541    3.0168 Cl  0  0  0  0  0  0
   -3.3163   -2.4126    0.6741 C   0  0  0  0  0  0
   -3.6070   -1.5365   -0.3716 C   0  0  0  0  0  0
   -3.0673   -0.2333   -0.3993 C   0  0  0  0  0  0
   -3.4503    0.6722   -1.5425 C   0  0  0  0  0  0
   -3.6945    0.0054   -2.7043 F   0  0  0  0  0  0
   -2.4884    1.5912   -1.8419 F   0  0  0  0  0  0
   -4.5772    1.3854   -1.2744 F   0  0  0  0  0  0
    0.2974    2.6877    1.5990 C   0  0  0  0  0  0
    1.6655    2.9801    1.5910 C   0  0  0  0  0  0
    2.5228    2.2679    0.7532 C   0  0  0  0  0  0
    3.8235    2.5846    0.7508 F   0  0  0  0  0  0
    3.0657   -2.4320    0.4197 H   0  0  0  0  0  0
    2.1138   -1.0662    1.0112 H   0  0  0  0  0  0
    1.4375   -2.1290   -0.2521 H   0  0  0  0  0  0
    2.8488   -2.2794   -2.4598 H   0  0  0  0  0  0
    4.4022   -2.1894   -1.5915 H   0  0  0  0  0  0
    3.9769   -0.9497   -2.7940 H   0  0  0  0  0  0
    0.2664    0.2198   -0.7371 H   0  0  0  0  0  0
   -1.9406    2.0729   -0.0675 H   0  0  0  0  0  0
   -1.3018   -0.3923    2.5172 H   0  0  0  0  0  0
   -3.7425   -3.4113    0.6793 H   0  0  0  0  0  0
   -4.2635   -1.8727   -1.1740 H   0  0  0  0  0  0
   -0.3725    3.2687    2.2296 H   0  0  0  0  0  0
    2.0635    3.7759    2.2144 H   0  0  0  0  0  0
  1  2  1  0  0  0
  1 25  1  0  0  0
  1 26  1  0  0  0
  1 27  1  0  0  0
  2  3  1  0  0  0
  2  4  1  0  0  0
  3 28  1  0  0  0
  3 29  1  0  0  0
  3 30  1  0  0  0
  4  5  2  0  0  0
  4  6  1  0  0  0
  6  7  2  0  0  0
  6 23  1  0  0  0
  7  8  1  0  0  0
  7 31  1  0  0  0
  8  9  1  0  0  0
  8 21  2  0  0  0
  9 10  1  0  0  0
  9 32  1  0  0  0
 10 11  2  0  0  0
 10 16  1  0  0  0
 11 12  1  0  0  0
 11 33  1  0  0  0
 12 13  1  0  0  0
 12 14  2  0  0  0
 14 15  1  0  0  0
 14 34  1  0  0  0
 15 16  2  0  0  0
 15 35  1  0  0  0
 16 17  1  0  0  0
 17 18  1  0  0  0
 17 19  1  0  0  0
 17 20  1  0  0  0
 21 22  1  0  0  0
 21 36  1  0  0  0
 22 23  2  0  0  0
 22 37  1  0  0  0
 23 24  1  0  0  0
M  END
> <energy>
52.3432

> <i_ionizer_Ion_state_n>
0

> <i_ionizer_Tot_Q>
0

> <s_ionizer_Ion_centers>


> <s_ionizer_Ion_types>


> <s_ionizer_Ion_ctrs_in>


> <r_ionizer_Ionization_penalty>
0

> <r_ionizer_Ionization_penalty_charging>
0

> <r_ionizer_Ionization_penalty_neutral>
0

$$$$
ZINC001211856186
                    3D
 Schrodinger Suite 2019-4.
 51 52  0  0  1  0            999 V2000
    5.5131    1.0427   -2.0319 C   0  0  0  0  0  0
    4.6997    0.6350   -0.8992 N   0  0  0  0  0  0
    5.0152   -0.6599   -0.3133 C   0  0  0  0  0  0
    3.5530    1.3707   -0.5940 C   0  0  0  0  0  0
    3.2404    2.4281   -1.1273 O   0  0  0  0  0  0
    2.6151    0.7969    0.3826 C   0  0  0  0  0  0
    1.7274   -0.1922   -0.0476 C   0  0  0  0  0  0
    0.8409   -0.7918    0.8594 C   0  0  0  0  0  0
   -0.0085   -1.8153    0.3676 N   0  0  0  0  0  0
   -1.0312   -2.4813    1.0853 C   0  0  0  0  0  0
   -0.6303   -3.5163    1.9554 C   0  0  0  0  0  0
   -1.5505   -4.1986    2.7507 C   0  0  0  0  0  0
   -2.8912   -3.8432    2.7059 C   0  0  0  0  0  0
   -3.3057   -2.8034    1.8704 C   0  0  0  0  0  0
   -2.3947   -2.1153    1.0439 C   0  0  0  0  0  0
   -2.9652   -1.0748    0.2748 N   0  0  0  0  0  0
   -2.4470   -0.3002   -0.7155 C   0  0  0  0  0  0
   -1.3736   -0.4321   -1.2830 O   0  0  0  0  0  0
   -3.3538    0.6701   -0.9806 O   0  0  0  0  0  0
   -2.9490    1.9410   -1.5476 C   0  0  0  0  0  0
   -2.2890    2.7568   -0.4289 C   0  0  0  0  0  0
   -4.2666    2.6223   -1.9518 C   0  0  0  0  0  0
   -2.0469    1.8355   -2.7802 C   0  0  0  0  0  0
    0.8943   -0.4102    2.2065 C   0  0  0  0  0  0
    1.7645    0.6031    2.6240 C   0  0  0  0  0  0
    2.6220    1.2077    1.7094 C   0  0  0  0  0  0
    3.4776    2.1442    2.1410 F   0  0  0  0  0  0
    5.2218    2.0163   -2.4346 H   0  0  0  0  0  0
    6.5587    1.0908   -1.7176 H   0  0  0  0  0  0
    5.4086    0.2922   -2.8210 H   0  0  0  0  0  0
    4.6117   -1.4418   -0.9621 H   0  0  0  0  0  0
    4.5912   -0.7732    0.6861 H   0  0  0  0  0  0
    6.0995   -0.7704   -0.2365 H   0  0  0  0  0  0
    1.7288   -0.4942   -1.0910 H   0  0  0  0  0  0
   -0.3804   -1.4953   -0.5396 H   0  0  0  0  0  0
    0.4200   -3.8003    1.9964 H   0  0  0  0  0  0
   -1.2192   -5.0019    3.4023 H   0  0  0  0  0  0
   -3.6190   -4.3781    3.3134 H   0  0  0  0  0  0
   -4.3641   -2.5523    1.8616 H   0  0  0  0  0  0
   -3.9141   -0.8086    0.4983 H   0  0  0  0  0  0
   -2.0190    3.7622   -0.7645 H   0  0  0  0  0  0
   -2.9665    2.8509    0.4297 H   0  0  0  0  0  0
   -1.3889    2.2587   -0.0547 H   0  0  0  0  0  0
   -4.8263    2.0012   -2.6604 H   0  0  0  0  0  0
   -4.9172    2.7627   -1.0793 H   0  0  0  0  0  0
   -4.0900    3.6007   -2.4095 H   0  0  0  0  0  0
   -1.9893    2.7915   -3.3144 H   0  0  0  0  0  0
   -2.4150    1.0697   -3.4704 H   0  0  0  0  0  0
   -1.0177    1.5723   -2.5120 H   0  0  0  0  0  0
    0.2389   -0.8759    2.9407 H   0  0  0  0  0  0
    1.7876    0.9034    3.6633 H   0  0  0  0  0  0
  1  2  1  0  0  0
  1 28  1  0  0  0
  1 29  1  0  0  0
  1 30  1  0  0  0
  2  3  1  0  0  0
  2  4  1  0  0  0
  3 31  1  0  0  0
  3 32  1  0  0  0
  3 33  1  0  0  0
  4  5  2  0  0  0
  4  6  1  0  0  0
  6  7  2  0  0  0
  6 26  1  0  0  0
  7  8  1  0  0  0
  7 34  1  0  0  0
  8  9  1  0  0  0
  8 24  2  0  0  0
  9 10  1  0  0  0
  9 35  1  0  0  0
 10 11  2  0  0  0
 10 15  1  0  0  0
 11 12  1  0  0  0
 11 36  1  0  0  0
 12 13  2  0  0  0
 12 37  1  0  0  0
 13 14  1  0  0  0
 13 38  1  0  0  0
 14 15  2  0  0  0
 14 39  1  0  0  0
 15 16  1  0  0  0
 16 17  1  0  0  0
 16 40  1  0  0  0
 17 18  2  0  0  0
 17 19  1  0  0  0
 19 20  1  0  0  0
 20 21  1  0  0  0
 20 22  1  0  0  0
 20 23  1  0  0  0
 21 41  1  0  0  0
 21 42  1  0  0  0
 21 43  1  0  0  0
 22 44  1  0  0  0
 22 45  1  0  0  0
 22 46  1  0  0  0
 23 47  1  0  0  0
 23 48  1  0  0  0
 23 49  1  0  0  0
 24 25  1  0  0  0
 24 50  1  0  0  0
 25 26  2  0  0  0
 25 51  1  0  0  0
 26 27  1  0  0  0
M  END
> <energy>
3.77195

> <i_ionizer_Ion_state_n>
0

> <i_ionizer_Tot_Q>
0

> <s_ionizer_Ion_centers>


> <s_ionizer_Ion_types>


> <s_ionizer_Ion_ctrs_in>


> <r_ionizer_Ionization_penalty>
0

> <r_ionizer_Ionization_penalty_charging>
0

> <r_ionizer_Ionization_penalty_neutral>
0

$$$$
ZINC001211856289
                    3D
 Schrodinger Suite 2019-4.
 41 43  0  0  1  0            999 V2000
    1.7235   -5.3115    0.7034 C   0  0  0  0  0  0
    1.5303   -4.0954   -0.0754 N   0  0  0  0  0  0
    0.1491   -3.6677   -0.2502 C   0  0  0  0  0  0
    2.6198   -3.2347   -0.2270 C   0  0  0  0  0  0
    3.7547   -3.4733    0.1814 O   0  0  0  0  0  0
    2.3958   -1.9088   -0.8291 C   0  0  0  0  0  0
    2.5098   -0.7771   -0.0133 C   0  0  0  0  0  0
    2.2793    0.4991   -0.5468 C   0  0  0  0  0  0
    2.3083    1.6404    0.3049 N   0  0  0  0  0  0
    1.0761    2.1726    0.7810 C   0  0  0  0  0  0
    0.4685    3.2390    0.1063 C   0  0  0  0  0  0
   -0.8134    3.6647    0.4699 C   0  0  0  0  0  0
   -1.5026    2.9950    1.4801 C   0  0  0  0  0  0
   -2.7841    3.3201    1.8620 O   0  0  0  0  0  0
   -3.8033    3.1780    1.0109 C   0  0  0  0  0  0
   -3.7234    3.3619   -0.2940 N   0  0  0  0  0  0
   -4.9699    3.2026   -0.8679 C   0  0  0  0  0  0
   -5.9876    2.8636    0.0010 C   0  0  0  0  0  0
   -5.3736    2.7823    1.6036 S   0  0  0  0  0  0
   -0.8808    1.9684    2.1924 C   0  0  0  0  0  0
    0.3987    1.5466    1.8369 C   0  0  0  0  0  0
    1.9171    0.6215   -1.8988 C   0  0  0  0  0  0
    1.8610   -0.5109   -2.7213 C   0  0  0  0  0  0
    2.1130   -1.7699   -2.1840 C   0  0  0  0  0  0
    2.0649   -2.8406   -2.9883 F   0  0  0  0  0  0
    1.0847   -6.1037    0.3015 H   0  0  0  0  0  0
    2.7621   -5.6464    0.6810 H   0  0  0  0  0  0
    1.4403   -5.1157    1.7408 H   0  0  0  0  0  0
    0.0390   -2.9788   -1.0848 H   0  0  0  0  0  0
   -0.4782   -4.5400   -0.4463 H   0  0  0  0  0  0
   -0.1773   -3.1695    0.6659 H   0  0  0  0  0  0
    2.7715   -0.9041    1.0333 H   0  0  0  0  0  0
    2.8543    1.3826    1.1293 H   0  0  0  0  0  0
    0.9889    3.7286   -0.7122 H   0  0  0  0  0  0
   -1.2785    4.4880   -0.0643 H   0  0  0  0  0  0
   -5.0772    3.3495   -1.9373 H   0  0  0  0  0  0
   -7.0352    2.6790   -0.2115 H   0  0  0  0  0  0
   -1.4104    1.4659    2.9957 H   0  0  0  0  0  0
    0.8454    0.7105    2.3643 H   0  0  0  0  0  0
    1.7136    1.6023   -2.3169 H   0  0  0  0  0  0
    1.6258   -0.4139   -3.7760 H   0  0  0  0  0  0
  1  2  1  0  0  0
  1 26  1  0  0  0
  1 27  1  0  0  0
  1 28  1  0  0  0
  2  3  1  0  0  0
  2  4  1  0  0  0
  3 29  1  0  0  0
  3 30  1  0  0  0
  3 31  1  0  0  0
  4  5  2  0  0  0
  4  6  1  0  0  0
  6  7  2  0  0  0
  6 24  1  0  0  0
  7  8  1  0  0  0
  7 32  1  0  0  0
  8  9  1  0  0  0
  8 22  2  0  0  0
  9 10  1  0  0  0
  9 33  1  0  0  0
 10 11  2  0  0  0
 10 21  1  0  0  0
 11 12  1  0  0  0
 11 34  1  0  0  0
 12 13  2  0  0  0
 12 35  1  0  0  0
 13 14  1  0  0  0
 13 20  1  0  0  0
 14 15  1  0  0  0
 15 16  2  0  0  0
 15 19  1  0  0  0
 16 17  1  0  0  0
 17 18  2  0  0  0
 17 36  1  0  0  0
 18 19  1  0  0  0
 18 37  1  0  0  0
 20 21  2  0  0  0
 20 38  1  0  0  0
 21 39  1  0  0  0
 22 23  1  0  0  0
 22 40  1  0  0  0
 23 24  2  0  0  0
 23 41  1  0  0  0
 24 25  1  0  0  0
M  END
> <energy>
45.7999

> <i_ionizer_Ion_state_n>
0

> <i_ionizer_Tot_Q>
0

> <s_ionizer_Ion_centers>


> <s_ionizer_Ion_types>


> <s_ionizer_Ion_ctrs_in>


> <r_ionizer_Ionization_penalty>
0

> <r_ionizer_Ionization_penalty_charging>
0

> <r_ionizer_Ionization_penalty_neutral>
0

$$$$
ZINC001211856364
                    3D
 Schrodinger Suite 2019-4.
 43 45  0  0  1  0            999 V2000
    5.2922    3.4295    1.8550 C   0  0  0  0  0  0
    4.7683    2.7379    0.6481 C   0  0  0  0  0  0
    4.0138    1.6633    0.6981 N   0  0  0  0  0  0
    3.6489    1.2710   -0.5800 C   0  0  0  0  0  0
    2.7655    0.1265   -0.7649 C   0  0  0  0  0  0
    1.8198    0.0661   -1.7963 C   0  0  0  0  0  0
    0.9073   -0.9946   -1.8533 C   0  0  0  0  0  0
    0.9396   -2.0190   -0.8997 C   0  0  0  0  0  0
   -0.0776   -3.0142   -0.8570 N   0  0  0  0  0  0
   -1.2938   -2.7572   -0.1581 C   0  0  0  0  0  0
   -1.5836   -3.4164    1.0501 C   0  0  0  0  0  0
   -2.7299   -3.0881    1.7876 C   0  0  0  0  0  0
   -3.5915   -2.0987    1.3236 C   0  0  0  0  0  0
   -4.6627   -1.7727    2.0585 F   0  0  0  0  0  0
   -3.3045   -1.4383    0.1343 C   0  0  0  0  0  0
   -4.1810   -0.3637   -0.3455 C   0  0  0  0  0  0
   -5.1959   -0.6915   -0.9543 O   0  0  0  0  0  0
   -3.7771    0.9554   -0.1310 N   0  0  0  0  0  0
   -4.5188    2.0221   -0.7792 C   0  0  0  0  0  0
   -2.5269    1.3356    0.5141 C   0  0  0  0  0  0
   -2.1724   -1.7703   -0.6153 C   0  0  0  0  0  0
    1.9021   -1.9704    0.1134 C   0  0  0  0  0  0
    2.8091   -0.9107    0.1760 C   0  0  0  0  0  0
    4.1755    2.0462   -1.5943 C   0  0  0  0  0  0
    5.1294    3.3101   -0.9274 S   0  0  0  0  0  0
    4.4727    3.6227    2.5554 H   0  0  0  0  0  0
    6.0262    2.7920    2.3571 H   0  0  0  0  0  0
    5.7643    4.3888    1.6223 H   0  0  0  0  0  0
    1.7443    0.8608   -2.5321 H   0  0  0  0  0  0
    0.1588   -1.0118   -2.6403 H   0  0  0  0  0  0
    0.3322   -3.8706   -0.4799 H   0  0  0  0  0  0
   -0.9133   -4.1774    1.4412 H   0  0  0  0  0  0
   -2.9509   -3.5904    2.7269 H   0  0  0  0  0  0
   -3.9111    2.4201   -1.5985 H   0  0  0  0  0  0
   -4.7176    2.8181   -0.0549 H   0  0  0  0  0  0
   -5.4719    1.6730   -1.1846 H   0  0  0  0  0  0
   -2.6832    2.2569    1.0836 H   0  0  0  0  0  0
   -1.7758    1.5102   -0.2605 H   0  0  0  0  0  0
   -2.1634    0.5676    1.2008 H   0  0  0  0  0  0
   -1.9858   -1.2604   -1.5541 H   0  0  0  0  0  0
    1.9329   -2.7315    0.8871 H   0  0  0  0  0  0
    3.5297   -0.8742    0.9913 H   0  0  0  0  0  0
    4.0558    1.9483   -2.6629 H   0  0  0  0  0  0
  1  2  1  0  0  0
  1 26  1  0  0  0
  1 27  1  0  0  0
  1 28  1  0  0  0
  2  3  2  0  0  0
  2 25  1  0  0  0
  3  4  1  0  0  0
  4  5  1  0  0  0
  4 24  2  0  0  0
  5  6  2  0  0  0
  5 23  1  0  0  0
  6  7  1  0  0  0
  6 29  1  0  0  0
  7  8  2  0  0  0
  7 30  1  0  0  0
  8  9  1  0  0  0
  8 22  1  0  0  0
  9 10  1  0  0  0
  9 31  1  0  0  0
 10 11  2  0  0  0
 10 21  1  0  0  0
 11 12  1  0  0  0
 11 32  1  0  0  0
 12 13  2  0  0  0
 12 33  1  0  0  0
 13 14  1  0  0  0
 13 15  1  0  0  0
 15 16  1  0  0  0
 15 21  2  0  0  0
 16 17  2  0  0  0
 16 18  1  0  0  0
 18 19  1  0  0  0
 18 20  1  0  0  0
 19 34  1  0  0  0
 19 35  1  0  0  0
 19 36  1  0  0  0
 20 37  1  0  0  0
 20 38  1  0  0  0
 20 39  1  0  0  0
 21 40  1  0  0  0
 22 23  2  0  0  0
 22 41  1  0  0  0
 23 42  1  0  0  0
 24 25  1  0  0  0
 24 43  1  0  0  0
M  END
> <energy>
43.3639

> <i_ionizer_Ion_state_n>
0

> <i_ionizer_Tot_Q>
0

> <s_ionizer_Ion_centers>


> <s_ionizer_Ion_types>


> <s_ionizer_Ion_ctrs_in>


> <r_ionizer_Ionization_penalty>
0

> <r_ionizer_Ionization_penalty_charging>
0

> <r_ionizer_Ionization_penalty_neutral>
0

$$$$
ZINC001211856406
                    3D
 Schrodinger Suite 2019-4.
 38 39  0  0  1  0            999 V2000
    3.1309   -3.0223   -1.6404 C   0  0  0  0  0  0
    2.6326   -1.9400   -0.8090 N   0  0  0  0  0  0
    1.3802   -2.1908   -0.1096 C   0  0  0  0  0  0
    3.3375   -0.7373   -0.7717 C   0  0  0  0  0  0
    4.4269   -0.5563   -1.3062 O   0  0  0  0  0  0
    2.7143    0.4127   -0.1016 C   0  0  0  0  0  0
    1.5617    0.9882   -0.6509 C   0  0  0  0  0  0
    0.9585    2.0870   -0.0329 C   0  0  0  0  0  0
   -0.2660    2.6168   -0.5252 N   0  0  0  0  0  0
   -1.4813    1.8877   -0.4024 C   0  0  0  0  0  0
   -1.7694    0.8123   -1.2530 C   0  0  0  0  0  0
   -2.9103    0.0309   -1.0575 C   0  0  0  0  0  0
   -3.7578    0.3023    0.0156 C   0  0  0  0  0  0
   -4.8631   -0.4862    0.1890 O   0  0  0  0  0  0
   -4.5379   -1.5899    1.0270 C   0  0  0  0  0  0
   -5.6980   -2.2146    1.3452 F   0  0  0  0  0  0
   -3.7999   -2.4795    0.3129 F   0  0  0  0  0  0
   -3.5006    1.3929    0.8515 C   0  0  0  0  0  0
   -4.5516    1.7880    2.1599 Cl  0  0  0  0  0  0
   -2.3606    2.1736    0.6504 C   0  0  0  0  0  0
    1.5287    2.5984    1.1449 C   0  0  0  0  0  0
    2.6913    2.0330    1.6813 C   0  0  0  0  0  0
    3.2831    0.9419    1.0515 C   0  0  0  0  0  0
    4.3778    0.3959    1.5977 F   0  0  0  0  0  0
    4.0714   -2.7677   -2.1331 H   0  0  0  0  0  0
    2.3839   -3.2471   -2.4079 H   0  0  0  0  0  0
    3.2851   -3.9076   -1.0176 H   0  0  0  0  0  0
    0.5588   -2.1043   -0.8260 H   0  0  0  0  0  0
    1.2239   -1.4881    0.7102 H   0  0  0  0  0  0
    1.3977   -3.2012    0.3092 H   0  0  0  0  0  0
    1.1529    0.5825   -1.5704 H   0  0  0  0  0  0
   -0.3975    3.5518   -0.1409 H   0  0  0  0  0  0
   -1.1134    0.5857   -2.0887 H   0  0  0  0  0  0
   -3.1294   -0.7916   -1.7352 H   0  0  0  0  0  0
   -4.0135   -1.3166    1.9495 H   0  0  0  0  0  0
   -2.1474    2.9965    1.3267 H   0  0  0  0  0  0
    1.0686    3.4367    1.6645 H   0  0  0  0  0  0
    3.1319    2.4264    2.5931 H   0  0  0  0  0  0
  1  2  1  0  0  0
  1 25  1  0  0  0
  1 26  1  0  0  0
  1 27  1  0  0  0
  2  3  1  0  0  0
  2  4  1  0  0  0
  3 28  1  0  0  0
  3 29  1  0  0  0
  3 30  1  0  0  0
  4  5  2  0  0  0
  4  6  1  0  0  0
  6  7  2  0  0  0
  6 23  1  0  0  0
  7  8  1  0  0  0
  7 31  1  0  0  0
  8  9  1  0  0  0
  8 21  2  0  0  0
  9 10  1  0  0  0
  9 32  1  0  0  0
 10 11  2  0  0  0
 10 20  1  0  0  0
 11 12  1  0  0  0
 11 33  1  0  0  0
 12 13  2  0  0  0
 12 34  1  0  0  0
 13 14  1  0  0  0
 13 18  1  0  0  0
 14 15  1  0  0  0
 15 16  1  0  0  0
 15 17  1  0  0  0
 15 35  1  0  0  0
 18 19  1  0  0  0
 18 20  2  0  0  0
 20 36  1  0  0  0
 21 22  1  0  0  0
 21 37  1  0  0  0
 22 23  2  0  0  0
 22 38  1  0  0  0
 23 24  1  0  0  0
M  END
> <energy>
42.0573

> <i_ionizer_Ion_state_n>
0

> <i_ionizer_Tot_Q>
0

> <s_ionizer_Ion_centers>


> <s_ionizer_Ion_types>


> <s_ionizer_Ion_ctrs_in>


> <r_ionizer_Ionization_penalty>
0

> <r_ionizer_Ionization_penalty_charging>
0

> <r_ionizer_Ionization_penalty_neutral>
0

$$$$
ZINC001211856445
                    3D
 Schrodinger Suite 2019-4.
 48 50  0  0  1  0            999 V2000
    1.5708    1.2507   -4.0764 C   0  0  0  0  0  0
    1.8444    1.4818   -2.6678 N   0  0  0  0  0  0
    2.8995    0.6720   -2.0773 C   0  0  0  0  0  0
    1.0760    2.4185   -1.9756 C   0  0  0  0  0  0
    0.2848    3.1850   -2.5179 O   0  0  0  0  0  0
    1.1592    2.4497   -0.5053 C   0  0  0  0  0  0
    0.8145    1.3080    0.2254 C   0  0  0  0  0  0
    0.8285    1.3270    1.6258 C   0  0  0  0  0  0
    0.4775    0.1674    2.3566 N   0  0  0  0  0  0
    0.9894   -1.1217    2.0436 C   0  0  0  0  0  0
    2.3669   -1.3676    2.1421 C   0  0  0  0  0  0
    2.8731   -2.6530    1.9355 C   0  0  0  0  0  0
    2.0084   -3.7096    1.6481 C   0  0  0  0  0  0
    0.6376   -3.4794    1.5423 C   0  0  0  0  0  0
    0.1324   -2.1908    1.7318 C   0  0  0  0  0  0
   -1.2182   -1.9681    1.6349 O   0  0  0  0  0  0
   -1.6445   -2.0635    0.2677 C   0  0  0  0  0  0
   -2.9587   -1.3462    0.0419 C   0  0  0  0  0  0
   -3.7318   -1.6629   -1.0869 C   0  0  0  0  0  0
   -4.9189   -0.9751   -1.3511 C   0  0  0  0  0  0
   -5.3450    0.0375   -0.4932 C   0  0  0  0  0  0
   -4.5838    0.3631    0.6270 C   0  0  0  0  0  0
   -3.3947   -0.3192    0.8902 C   0  0  0  0  0  0
    1.1441    2.5257    2.2824 C   0  0  0  0  0  0
    1.5005    3.6638    1.5510 C   0  0  0  0  0  0
    1.5060    3.6228    0.1582 C   0  0  0  0  0  0
    1.8777    4.7178   -0.5173 F   0  0  0  0  0  0
    2.4893    1.4203   -4.6448 H   0  0  0  0  0  0
    0.7854    1.9038   -4.4650 H   0  0  0  0  0  0
    1.2554    0.2098   -4.2004 H   0  0  0  0  0  0
    3.2737    1.0975   -1.1448 H   0  0  0  0  0  0
    3.7344    0.6157   -2.7822 H   0  0  0  0  0  0
    2.5105   -0.3342   -1.8953 H   0  0  0  0  0  0
    0.5135    0.4055   -0.3002 H   0  0  0  0  0  0
    0.5794    0.3173    3.3588 H   0  0  0  0  0  0
    3.0501   -0.5571    2.3886 H   0  0  0  0  0  0
    3.9423   -2.8333    2.0175 H   0  0  0  0  0  0
    2.4030   -4.7144    1.5149 H   0  0  0  0  0  0
   -0.0351   -4.3046    1.3291 H   0  0  0  0  0  0
   -0.9040   -1.6225   -0.4137 H   0  0  0  0  0  0
   -1.7749   -3.1252    0.0225 H   0  0  0  0  0  0
   -3.4117   -2.4449   -1.7727 H   0  0  0  0  0  0
   -5.5084   -1.2253   -2.2294 H   0  0  0  0  0  0
   -6.2675    0.5741   -0.7004 H   0  0  0  0  0  0
   -4.9120    1.1544    1.2947 H   0  0  0  0  0  0
   -2.8077   -0.0417    1.7621 H   0  0  0  0  0  0
    1.1241    2.5823    3.3673 H   0  0  0  0  0  0
    1.7644    4.5885    2.0575 H   0  0  0  0  0  0
  1  2  1  0  0  0
  1 28  1  0  0  0
  1 29  1  0  0  0
  1 30  1  0  0  0
  2  3  1  0  0  0
  2  4  1  0  0  0
  3 31  1  0  0  0
  3 32  1  0  0  0
  3 33  1  0  0  0
  4  5  2  0  0  0
  4  6  1  0  0  0
  6  7  2  0  0  0
  6 26  1  0  0  0
  7  8  1  0  0  0
  7 34  1  0  0  0
  8  9  1  0  0  0
  8 24  2  0  0  0
  9 10  1  0  0  0
  9 35  1  0  0  0
 10 11  2  0  0  0
 10 15  1  0  0  0
 11 12  1  0  0  0
 11 36  1  0  0  0
 12 13  2  0  0  0
 12 37  1  0  0  0
 13 14  1  0  0  0
 13 38  1  0  0  0
 14 15  2  0  0  0
 14 39  1  0  0  0
 15 16  1  0  0  0
 16 17  1  0  0  0
 17 18  1  0  0  0
 17 40  1  0  0  0
 17 41  1  0  0  0
 18 19  2  0  0  0
 18 23  1  0  0  0
 19 20  1  0  0  0
 19 42  1  0  0  0
 20 21  2  0  0  0
 20 43  1  0  0  0
 21 22  1  0  0  0
 21 44  1  0  0  0
 22 23  2  0  0  0
 22 45  1  0  0  0
 23 46  1  0  0  0
 24 25  1  0  0  0
 24 47  1  0  0  0
 25 26  2  0  0  0
 25 48  1  0  0  0
 26 27  1  0  0  0
M  END
> <energy>
76.2571

> <i_ionizer_Ion_state_n>
0

> <i_ionizer_Tot_Q>
0

> <s_ionizer_Ion_centers>


> <s_ionizer_Ion_types>


> <s_ionizer_Ion_ctrs_in>


> <r_ionizer_Ionization_penalty>
0

> <r_ionizer_Ionization_penalty_charging>
0

> <r_ionizer_Ionization_penalty_neutral>
0

$$$$
ZINC001211856498
                    3D
 Schrodinger Suite 2019-4.
 46 48  0  0  1  0            999 V2000
    5.0010   -1.7419   -0.5153 C   0  0  0  0  0  0
    3.8476   -1.0561    0.0676 N   0  0  0  0  0  0
    2.5639   -1.3084   -0.5788 C   0  0  0  0  0  0
    4.0284   -0.2816    1.2232 C   0  0  0  0  0  0
    5.0793   -0.2294    1.8504 O   0  0  0  0  0  0
    2.9051    0.5485    1.7002 C   0  0  0  0  0  0
    2.4537    1.6111    0.9110 C   0  0  0  0  0  0
    1.3665    2.3945    1.3288 C   0  0  0  0  0  0
    0.7596    3.3189    0.4086 N   0  0  0  0  0  0
   -0.1536    2.7593   -0.5417 C   0  0  0  0  0  0
   -1.5335    2.8942   -0.3566 C   0  0  0  0  0  0
   -2.4141    2.0169   -0.9970 C   0  0  0  0  0  0
   -1.9004    0.9869   -1.7953 C   0  0  0  0  0  0
   -2.7675   -0.0964   -2.3185 C   0  0  0  0  0  0
   -2.8900   -0.1953   -3.5306 O   0  0  0  0  0  0
   -3.4046   -1.0918   -1.3854 C   0  0  0  0  0  0
   -3.4423   -0.9291    0.0067 C   0  0  0  0  0  0
   -4.0896   -1.8662    0.8222 C   0  0  0  0  0  0
   -4.6614   -3.0084    0.2650 C   0  0  0  0  0  0
   -4.6005   -3.2011   -1.1157 C   0  0  0  0  0  0
   -3.9742   -2.2545   -1.9327 C   0  0  0  0  0  0
   -0.5420    0.9556   -2.1092 C   0  0  0  0  0  0
    0.3214    1.8743   -1.5158 C   0  0  0  0  0  0
    0.7478    2.1114    2.5586 C   0  0  0  0  0  0
    1.2296    1.0720    3.3627 C   0  0  0  0  0  0
    2.3086    0.2977    2.9311 C   0  0  0  0  0  0
    2.7245   -0.7141    3.7069 F   0  0  0  0  0  0
    5.0911   -1.4503   -1.5689 H   0  0  0  0  0  0
    5.9308   -1.4756   -0.0024 H   0  0  0  0  0  0
    4.8481   -2.8242   -0.4502 H   0  0  0  0  0  0
    2.5678   -0.8167   -1.5545 H   0  0  0  0  0  0
    2.4232   -2.3864   -0.7141 H   0  0  0  0  0  0
    1.7280   -0.9441    0.0203 H   0  0  0  0  0  0
    2.9322    1.8201   -0.0390 H   0  0  0  0  0  0
    0.2710    4.0381    0.9417 H   0  0  0  0  0  0
   -1.9318    3.6398    0.3251 H   0  0  0  0  0  0
   -3.4846    2.1021   -0.8181 H   0  0  0  0  0  0
   -2.9824   -0.0791    0.4974 H   0  0  0  0  0  0
   -4.1411   -1.7130    1.9009 H   0  0  0  0  0  0
   -5.1388   -3.7525    0.9085 H   0  0  0  0  0  0
   -5.0194   -4.1056   -1.5554 H   0  0  0  0  0  0
   -3.9071   -2.4443   -3.0035 H   0  0  0  0  0  0
   -0.1491    0.2008   -2.7861 H   0  0  0  0  0  0
    1.3879    1.8399   -1.7369 H   0  0  0  0  0  0
   -0.1365    2.6548    2.8767 H   0  0  0  0  0  0
    0.7476    0.8295    4.3079 H   0  0  0  0  0  0
  1  2  1  0  0  0
  1 28  1  0  0  0
  1 29  1  0  0  0
  1 30  1  0  0  0
  2  3  1  0  0  0
  2  4  1  0  0  0
  3 31  1  0  0  0
  3 32  1  0  0  0
  3 33  1  0  0  0
  4  5  2  0  0  0
  4  6  1  0  0  0
  6  7  2  0  0  0
  6 26  1  0  0  0
  7  8  1  0  0  0
  7 34  1  0  0  0
  8  9  1  0  0  0
  8 24  2  0  0  0
  9 10  1  0  0  0
  9 35  1  0  0  0
 10 11  2  0  0  0
 10 23  1  0  0  0
 11 12  1  0  0  0
 11 36  1  0  0  0
 12 13  2  0  0  0
 12 37  1  0  0  0
 13 14  1  0  0  0
 13 22  1  0  0  0
 14 15  2  0  0  0
 14 16  1  0  0  0
 16 17  2  0  0  0
 16 21  1  0  0  0
 17 18  1  0  0  0
 17 38  1  0  0  0
 18 19  2  0  0  0
 18 39  1  0  0  0
 19 20  1  0  0  0
 19 40  1  0  0  0
 20 21  2  0  0  0
 20 41  1  0  0  0
 21 42  1  0  0  0
 22 23  2  0  0  0
 22 43  1  0  0  0
 23 44  1  0  0  0
 24 25  1  0  0  0
 24 45  1  0  0  0
 25 26  2  0  0  0
 25 46  1  0  0  0
 26 27  1  0  0  0
M  END
> <energy>
94.773

> <i_ionizer_Ion_state_n>
0

> <i_ionizer_Tot_Q>
0

> <s_ionizer_Ion_centers>


> <s_ionizer_Ion_types>


> <s_ionizer_Ion_ctrs_in>


> <r_ionizer_Ionization_penalty>
0

> <r_ionizer_Ionization_penalty_charging>
0

> <r_ionizer_Ionization_penalty_neutral>
0

$$$$
ZINC001211857821
                    3D
 Schrodinger Suite 2019-4.
 34 35  0  0  1  0            999 V2000
    3.0832   -2.9763   -0.9033 C   0  0  0  0  0  0
    2.4835   -1.8445   -0.2115 N   0  0  0  0  0  0
    1.4527   -2.1641    0.7631 C   0  0  0  0  0  0
    2.8489   -0.5524   -0.5828 C   0  0  0  0  0  0
    3.7214   -0.2853   -1.4058 O   0  0  0  0  0  0
    2.0749    0.5728   -0.0428 C   0  0  0  0  0  0
    0.8431    0.8734   -0.6267 C   0  0  0  0  0  0
    0.0816    1.9366   -0.1332 C   0  0  0  0  0  0
   -1.2033    2.2009   -0.6764 N   0  0  0  0  0  0
   -2.2794    1.2974   -0.4323 C   0  0  0  0  0  0
   -2.8541    0.5929   -1.5000 C   0  0  0  0  0  0
   -3.8918   -0.3080   -1.2615 C   0  0  0  0  0  0
   -4.5600   -1.1657   -2.5958 Cl  0  0  0  0  0  0
   -4.3742   -0.5073    0.0316 C   0  0  0  0  0  0
   -5.3979   -1.3525    0.2373 F   0  0  0  0  0  0
   -3.7998    0.1713    1.1061 C   0  0  0  0  0  0
   -4.3815   -0.0873    2.7071 Cl  0  0  0  0  0  0
   -2.7513    1.0589    0.8737 C   0  0  0  0  0  0
   -2.1823    1.6964    1.9130 F   0  0  0  0  0  0
    0.5810    2.7155    0.9207 C   0  0  0  0  0  0
    1.8243    2.4174    1.4893 C   0  0  0  0  0  0
    2.5657    1.3427    1.0063 C   0  0  0  0  0  0
    3.7470    1.0622    1.5742 F   0  0  0  0  0  0
    3.4511   -3.6969   -0.1690 H   0  0  0  0  0  0
    2.3132   -3.4519   -1.5181 H   0  0  0  0  0  0
    3.9098   -2.6795   -1.5561 H   0  0  0  0  0  0
    0.5737   -2.5397    0.2303 H   0  0  0  0  0  0
    1.8335   -2.9361    1.4412 H   0  0  0  0  0  0
    1.1623   -1.2977    1.3676 H   0  0  0  0  0  0
    0.4822    0.2725   -1.4582 H   0  0  0  0  0  0
   -1.0917    2.3404   -1.6834 H   0  0  0  0  0  0
   -2.4784    0.7240   -2.5116 H   0  0  0  0  0  0
   -0.0031    3.5510    1.2997 H   0  0  0  0  0  0
    2.2162    3.0189    2.3074 H   0  0  0  0  0  0
  1  2  1  0  0  0
  1 24  1  0  0  0
  1 25  1  0  0  0
  1 26  1  0  0  0
  2  3  1  0  0  0
  2  4  1  0  0  0
  3 27  1  0  0  0
  3 28  1  0  0  0
  3 29  1  0  0  0
  4  5  2  0  0  0
  4  6  1  0  0  0
  6  7  2  0  0  0
  6 22  1  0  0  0
  7  8  1  0  0  0
  7 30  1  0  0  0
  8  9  1  0  0  0
  8 20  2  0  0  0
  9 10  1  0  0  0
  9 31  1  0  0  0
 10 11  2  0  0  0
 10 18  1  0  0  0
 11 12  1  0  0  0
 11 32  1  0  0  0
 12 13  1  0  0  0
 12 14  2  0  0  0
 14 15  1  0  0  0
 14 16  1  0  0  0
 16 17  1  0  0  0
 16 18  2  0  0  0
 18 19  1  0  0  0
 20 21  1  0  0  0
 20 33  1  0  0  0
 21 22  2  0  0  0
 21 34  1  0  0  0
 22 23  1  0  0  0
M  END
> <energy>
53.5656

> <i_ionizer_Ion_state_n>
0

> <i_ionizer_Tot_Q>
0

> <s_ionizer_Ion_centers>


> <s_ionizer_Ion_types>


> <s_ionizer_Ion_ctrs_in>


> <r_ionizer_Ionization_penalty>
0

> <r_ionizer_Ionization_penalty_charging>
0

> <r_ionizer_Ionization_penalty_neutral>
0

$$$$
ZINC001211857842
                    3D
 Schrodinger Suite 2019-4.
 37 38  0  0  1  0            999 V2000
    4.1494   -0.8895   -1.1389 C   0  0  0  0  0  0
    3.9210   -1.3875    0.2074 N   0  0  0  0  0  0
    4.6881   -2.5590    0.5956 C   0  0  0  0  0  0
    2.8452   -1.0105    1.0047 C   0  0  0  0  0  0
    2.5668   -1.5338    2.0805 O   0  0  0  0  0  0
    1.9145    0.0065    0.5049 C   0  0  0  0  0  0
    0.7815   -0.4169   -0.1968 C   0  0  0  0  0  0
   -0.2074    0.5058   -0.5537 C   0  0  0  0  0  0
   -1.3865    0.0482   -1.2033 N   0  0  0  0  0  0
   -2.6887    0.4952   -0.8239 C   0  0  0  0  0  0
   -3.3615    1.4701   -1.5916 C   0  0  0  0  0  0
   -2.6581    2.1316   -3.0303 Cl  0  0  0  0  0  0
   -4.6278    1.9298   -1.2213 C   0  0  0  0  0  0
   -5.2445    1.4308   -0.0794 C   0  0  0  0  0  0
   -4.5913    0.4783    0.6993 C   0  0  0  0  0  0
   -3.3153   -0.0031    0.3404 C   0  0  0  0  0  0
   -2.6417   -1.0108    1.2394 C   0  0  0  0  0  0
   -1.9613   -1.9695    0.5443 F   0  0  0  0  0  0
   -3.5210   -1.6975    2.0245 F   0  0  0  0  0  0
   -1.7479   -0.4465    2.0955 F   0  0  0  0  0  0
   -0.0016    1.8630   -0.2670 C   0  0  0  0  0  0
    1.1426    2.2836    0.4188 C   0  0  0  0  0  0
    2.0921    1.3485    0.8199 C   0  0  0  0  0  0
    3.1709    1.7662    1.4960 F   0  0  0  0  0  0
    3.6062   -1.5253   -1.8443 H   0  0  0  0  0  0
    5.2189   -0.9288   -1.3637 H   0  0  0  0  0  0
    3.8093    0.1422   -1.2470 H   0  0  0  0  0  0
    4.5235   -2.8288    1.6418 H   0  0  0  0  0  0
    5.7515   -2.3518    0.4460 H   0  0  0  0  0  0
    4.3875   -3.3985   -0.0395 H   0  0  0  0  0  0
    0.6611   -1.4769   -0.4058 H   0  0  0  0  0  0
   -1.3805   -0.9746   -1.2250 H   0  0  0  0  0  0
   -5.1374    2.6780   -1.8215 H   0  0  0  0  0  0
   -6.2325    1.7844    0.2089 H   0  0  0  0  0  0
   -5.0773    0.1076    1.6016 H   0  0  0  0  0  0
   -0.7346    2.6057   -0.5716 H   0  0  0  0  0  0
    1.2871    3.3340    0.6550 H   0  0  0  0  0  0
  1  2  1  0  0  0
  1 25  1  0  0  0
  1 26  1  0  0  0
  1 27  1  0  0  0
  2  3  1  0  0  0
  2  4  1  0  0  0
  3 28  1  0  0  0
  3 29  1  0  0  0
  3 30  1  0  0  0
  4  5  2  0  0  0
  4  6  1  0  0  0
  6  7  2  0  0  0
  6 23  1  0  0  0
  7  8  1  0  0  0
  7 31  1  0  0  0
  8  9  1  0  0  0
  8 21  2  0  0  0
  9 10  1  0  0  0
  9 32  1  0  0  0
 10 11  2  0  0  0
 10 16  1  0  0  0
 11 12  1  0  0  0
 11 13  1  0  0  0
 13 14  2  0  0  0
 13 33  1  0  0  0
 14 15  1  0  0  0
 14 34  1  0  0  0
 15 16  2  0  0  0
 15 35  1  0  0  0
 16 17  1  0  0  0
 17 18  1  0  0  0
 17 19  1  0  0  0
 17 20  1  0  0  0
 21 22  1  0  0  0
 21 36  1  0  0  0
 22 23  2  0  0  0
 22 37  1  0  0  0
 23 24  1  0  0  0
M  END
> <energy>
67.6583

> <i_ionizer_Ion_state_n>
0

> <i_ionizer_Tot_Q>
0

> <s_ionizer_Ion_centers>


> <s_ionizer_Ion_types>


> <s_ionizer_Ion_ctrs_in>


> <r_ionizer_Ionization_penalty>
0

> <r_ionizer_Ionization_penalty_charging>
0

> <r_ionizer_Ionization_penalty_neutral>
0

$$$$
ZINC001211857875
                    3D
 Schrodinger Suite 2019-4.
 40 41  0  0  1  0            999 V2000
    3.1263   -0.7341   -3.1528 C   0  0  0  0  0  0
    3.1280    0.2688   -2.0259 C   0  0  0  0  0  0
    3.8809    1.4375   -2.2106 C   0  0  0  0  0  0
    3.9966    2.3620   -1.1858 C   0  0  0  0  0  0
    3.3686    2.1311    0.0369 C   0  0  0  0  0  0
    3.6552    3.4410    1.3895 Br  0  0  0  0  0  0
    2.5893    0.9714    0.2541 C   0  0  0  0  0  0
    2.0500    0.7146    1.6398 C   0  0  0  0  0  0
    2.4158    0.0519   -0.8106 C   0  0  0  0  0  0
    1.5603   -1.0790   -0.7412 N   0  0  0  0  0  0
    0.3347   -1.3291   -0.0969 C   0  0  0  0  0  0
    0.0869   -2.6349    0.3603 C   0  0  0  0  0  0
   -1.0473   -2.9344    1.1255 C   0  0  0  0  0  0
   -1.9557   -1.9273    1.4295 C   0  0  0  0  0  0
   -3.0020   -2.2225    2.2127 F   0  0  0  0  0  0
   -1.7547   -0.6383    0.9531 C   0  0  0  0  0  0
   -2.6511    0.4612    1.3642 C   0  0  0  0  0  0
   -2.1351    1.3727    2.0144 O   0  0  0  0  0  0
   -4.0025    0.4389    0.9988 N   0  0  0  0  0  0
   -4.5403   -0.4536   -0.0213 C   0  0  0  0  0  0
   -4.7950    1.6192    1.3093 C   0  0  0  0  0  0
   -0.6018   -0.3303    0.2074 C   0  0  0  0  0  0
    3.8385   -0.4590   -3.9420 H   0  0  0  0  0  0
    3.4446   -1.7110   -2.7751 H   0  0  0  0  0  0
    2.1323   -0.8024   -3.5980 H   0  0  0  0  0  0
    4.3959    1.6257   -3.1510 H   0  0  0  0  0  0
    4.5964    3.2573   -1.3385 H   0  0  0  0  0  0
    2.8348    0.8465    2.3897 H   0  0  0  0  0  0
    1.7066   -0.3102    1.7882 H   0  0  0  0  0  0
    1.2278    1.3981    1.8664 H   0  0  0  0  0  0
    1.9710   -1.9006   -1.1704 H   0  0  0  0  0  0
    0.8099   -3.4276    0.1720 H   0  0  0  0  0  0
   -1.1981   -3.9357    1.5172 H   0  0  0  0  0  0
   -4.1723   -0.1300   -0.9978 H   0  0  0  0  0  0
   -4.2279   -1.4837    0.1552 H   0  0  0  0  0  0
   -5.6338   -0.4213   -0.0064 H   0  0  0  0  0  0
   -5.8209    1.3205    1.5409 H   0  0  0  0  0  0
   -4.7982    2.2796    0.4371 H   0  0  0  0  0  0
   -4.3889    2.1676    2.1632 H   0  0  0  0  0  0
   -0.4247    0.6991   -0.1011 H   0  0  0  0  0  0
  1  2  1  0  0  0
  1 23  1  0  0  0
  1 24  1  0  0  0
  1 25  1  0  0  0
  2  3  2  0  0  0
  2  9  1  0  0  0
  3  4  1  0  0  0
  3 26  1  0  0  0
  4  5  2  0  0  0
  4 27  1  0  0  0
  5  6  1  0  0  0
  5  7  1  0  0  0
  7  8  1  0  0  0
  7  9  2  0  0  0
  8 28  1  0  0  0
  8 29  1  0  0  0
  8 30  1  0  0  0
  9 10  1  0  0  0
 10 11  1  0  0  0
 10 31  1  0  0  0
 11 12  2  0  0  0
 11 22  1  0  0  0
 12 13  1  0  0  0
 12 32  1  0  0  0
 13 14  2  0  0  0
 13 33  1  0  0  0
 14 15  1  0  0  0
 14 16  1  0  0  0
 16 17  1  0  0  0
 16 22  2  0  0  0
 17 18  2  0  0  0
 17 19  1  0  0  0
 19 20  1  0  0  0
 19 21  1  0  0  0
 20 34  1  0  0  0
 20 35  1  0  0  0
 20 36  1  0  0  0
 21 37  1  0  0  0
 21 38  1  0  0  0
 21 39  1  0  0  0
 22 40  1  0  0  0
M  END
> <energy>
41.8163

> <i_ionizer_Ion_state_n>
0

> <i_ionizer_Tot_Q>
0

> <s_ionizer_Ion_centers>


> <s_ionizer_Ion_types>


> <s_ionizer_Ion_ctrs_in>


> <r_ionizer_Ionization_penalty>
0

> <r_ionizer_Ionization_penalty_charging>
0

> <r_ionizer_Ionization_penalty_neutral>
0

$$$$
ZINC001211857890
                    3D
 Schrodinger Suite 2019-4.
 48 50  0  0  1  0            999 V2000
   -0.5822    6.0019   -2.6201 C   0  0  0  0  0  0
    0.7209    6.0981   -2.0457 O   0  0  0  0  0  0
    1.1394    4.8933   -1.5532 C   0  0  0  0  0  0
    1.5152    4.8477   -0.2121 C   0  0  0  0  0  0
    1.9030    3.6350    0.3680 C   0  0  0  0  0  0
    1.9369    2.4528   -0.3883 C   0  0  0  0  0  0
    2.2210    1.1387    0.2078 C   0  0  0  0  0  0
    1.5593    0.7293    1.3708 C   0  0  0  0  0  0
    1.6085   -0.6029    1.7907 C   0  0  0  0  0  0
    2.3194   -1.5597    1.0520 C   0  0  0  0  0  0
    2.0721   -2.9421    1.2565 N   0  0  0  0  0  0
    0.8222   -3.5600    0.9800 C   0  0  0  0  0  0
    0.6236   -4.9045    1.3237 C   0  0  0  0  0  0
   -0.6238   -5.5184    1.1471 C   0  0  0  0  0  0
   -1.6910   -4.7901    0.6312 C   0  0  0  0  0  0
   -2.8861   -5.3826    0.5070 F   0  0  0  0  0  0
   -1.5056   -3.4629    0.2713 C   0  0  0  0  0  0
   -2.5929   -2.6725   -0.3185 C   0  0  0  0  0  0
   -2.9338   -2.9449   -1.4673 O   0  0  0  0  0  0
   -3.1007   -1.6128    0.4272 N   0  0  0  0  0  0
   -3.8998   -0.6057   -0.2448 C   0  0  0  0  0  0
   -2.7826   -1.3692    1.8275 C   0  0  0  0  0  0
   -0.2598   -2.8538    0.4396 C   0  0  0  0  0  0
    3.0746   -1.1363   -0.0413 C   0  0  0  0  0  0
    3.0360    0.2010   -0.4493 C   0  0  0  0  0  0
    1.6025    2.5380   -1.7549 C   0  0  0  0  0  0
    1.2186    3.7477   -2.3391 C   0  0  0  0  0  0
   -1.0193    7.0053   -2.6116 H   0  0  0  0  0  0
   -1.2438    5.3427   -2.0441 H   0  0  0  0  0  0
   -0.5120    5.6681   -3.6595 H   0  0  0  0  0  0
    1.4676    5.7520    0.3876 H   0  0  0  0  0  0
    2.1557    3.6234    1.4256 H   0  0  0  0  0  0
    0.9092    1.4180    1.9050 H   0  0  0  0  0  0
    1.0193   -0.9132    2.6510 H   0  0  0  0  0  0
    2.8374   -3.5247    0.9196 H   0  0  0  0  0  0
    1.4436   -5.4795    1.7480 H   0  0  0  0  0  0
   -0.7720   -6.5586    1.4208 H   0  0  0  0  0  0
   -3.3328    0.3310   -0.2746 H   0  0  0  0  0  0
   -4.8263   -0.4523    0.3144 H   0  0  0  0  0  0
   -4.1479   -0.8949   -1.2680 H   0  0  0  0  0  0
   -3.6700   -0.9848    2.3353 H   0  0  0  0  0  0
   -2.4768   -2.2870    2.3339 H   0  0  0  0  0  0
   -1.9763   -0.6347    1.8961 H   0  0  0  0  0  0
   -0.1495   -1.8220    0.1161 H   0  0  0  0  0  0
    3.6244   -1.8518   -0.6462 H   0  0  0  0  0  0
    3.5820    0.4832   -1.3452 H   0  0  0  0  0  0
    1.6021    1.6418   -2.3740 H   0  0  0  0  0  0
    0.9701    3.7730   -3.3961 H   0  0  0  0  0  0
  1  2  1  0  0  0
  1 28  1  0  0  0
  1 29  1  0  0  0
  1 30  1  0  0  0
  2  3  1  0  0  0
  3  4  2  0  0  0
  3 27  1  0  0  0
  4  5  1  0  0  0
  4 31  1  0  0  0
  5  6  2  0  0  0
  5 32  1  0  0  0
  6  7  1  0  0  0
  6 26  1  0  0  0
  7  8  2  0  0  0
  7 25  1  0  0  0
  8  9  1  0  0  0
  8 33  1  0  0  0
  9 10  2  0  0  0
  9 34  1  0  0  0
 10 11  1  0  0  0
 10 24  1  0  0  0
 11 12  1  0  0  0
 11 35  1  0  0  0
 12 13  2  0  0  0
 12 23  1  0  0  0
 13 14  1  0  0  0
 13 36  1  0  0  0
 14 15  2  0  0  0
 14 37  1  0  0  0
 15 16  1  0  0  0
 15 17  1  0  0  0
 17 18  1  0  0  0
 17 23  2  0  0  0
 18 19  2  0  0  0
 18 20  1  0  0  0
 20 21  1  0  0  0
 20 22  1  0  0  0
 21 38  1  0  0  0
 21 39  1  0  0  0
 21 40  1  0  0  0
 22 41  1  0  0  0
 22 42  1  0  0  0
 22 43  1  0  0  0
 23 44  1  0  0  0
 24 25  2  0  0  0
 24 45  1  0  0  0
 25 46  1  0  0  0
 26 27  2  0  0  0
 26 47  1  0  0  0
 27 48  1  0  0  0
M  END
> <energy>
59.7062

> <i_ionizer_Ion_state_n>
0

> <i_ionizer_Tot_Q>
0

> <s_ionizer_Ion_centers>


> <s_ionizer_Ion_types>


> <s_ionizer_Ion_ctrs_in>


> <r_ionizer_Ionization_penalty>
0

> <r_ionizer_Ionization_penalty_charging>
0

> <r_ionizer_Ionization_penalty_neutral>
0

$$$$
ZINC001211857910
                    3D
 Schrodinger Suite 2019-4.
 48 51  0  0  1  0            999 V2000
    4.1256   -2.4065    1.9408 C   0  0  0  0  0  0
    3.6022   -1.3192    1.1326 N   0  0  0  0  0  0
    3.7510   -1.4552   -0.3082 C   0  0  0  0  0  0
    2.8608   -0.3175    1.7563 C   0  0  0  0  0  0
    2.7222   -0.2086    2.9720 O   0  0  0  0  0  0
    2.1391    0.6355    0.9047 C   0  0  0  0  0  0
    0.9442    0.2365    0.2991 C   0  0  0  0  0  0
    0.2884    1.1219   -0.5634 C   0  0  0  0  0  0
   -0.8888    0.7037   -1.2409 N   0  0  0  0  0  0
   -1.1050    0.8552   -2.6119 C   0  0  0  0  0  0
   -0.2937    1.3947   -3.6332 C   0  0  0  0  0  0
   -0.7706    1.3878   -4.9451 C   0  0  0  0  0  0
   -2.0151    0.8519   -5.2465 C   0  0  0  0  0  0
   -2.8066    0.2913   -4.2401 C   0  0  0  0  0  0
   -2.3410    0.2758   -2.9092 C   0  0  0  0  0  0
   -2.8601   -0.2453   -1.6997 C   0  0  0  0  0  0
   -1.9650    0.0195   -0.6792 C   0  0  0  0  0  0
   -2.1591   -0.2481    0.7465 C   0  0  0  0  0  0
   -2.0991   -1.5573    1.2347 C   0  0  0  0  0  0
   -2.3030   -1.8119    2.5935 C   0  0  0  0  0  0
   -2.6300   -0.7771    3.4710 C   0  0  0  0  0  0
   -2.7427   -1.0231    4.8415 N   0  0  0  0  0  0
   -2.6352    0.5335    2.9885 C   0  0  0  0  0  0
   -2.4172    0.8005    1.6342 C   0  0  0  0  0  0
    0.8084    2.4082   -0.7843 C   0  0  0  0  0  0
    1.9865    2.8020   -0.1470 C   0  0  0  0  0  0
    2.6496    1.9136    0.6955 C   0  0  0  0  0  0
    3.7986    2.2988    1.2662 F   0  0  0  0  0  0
    4.0246   -2.2091    3.0103 H   0  0  0  0  0  0
    3.5804   -3.3246    1.6954 H   0  0  0  0  0  0
    5.1862   -2.5407    1.7072 H   0  0  0  0  0  0
    3.6487   -0.4935   -0.8145 H   0  0  0  0  0  0
    4.7459   -1.8525   -0.5332 H   0  0  0  0  0  0
    2.9893   -2.1473   -0.6819 H   0  0  0  0  0  0
    0.5760   -0.7711    0.4728 H   0  0  0  0  0  0
    0.6934    1.7980   -3.4258 H   0  0  0  0  0  0
   -0.1555    1.8025   -5.7403 H   0  0  0  0  0  0
   -2.3688    0.8558   -6.2746 H   0  0  0  0  0  0
   -3.7708   -0.1406   -4.4895 H   0  0  0  0  0  0
   -3.8092   -0.7474   -1.5677 H   0  0  0  0  0  0
   -1.8724   -2.3858    0.5660 H   0  0  0  0  0  0
   -2.2128   -2.8323    2.9584 H   0  0  0  0  0  0
   -3.2605   -0.3140    5.3474 H   0  0  0  0  0  0
   -3.0396   -1.9650    5.0749 H   0  0  0  0  0  0
   -2.8241    1.3613    3.6644 H   0  0  0  0  0  0
   -2.4565    1.8294    1.2871 H   0  0  0  0  0  0
    0.2860    3.1220   -1.4186 H   0  0  0  0  0  0
    2.3952    3.7943   -0.3060 H   0  0  0  0  0  0
  1  2  1  0  0  0
  1 29  1  0  0  0
  1 30  1  0  0  0
  1 31  1  0  0  0
  2  3  1  0  0  0
  2  4  1  0  0  0
  3 32  1  0  0  0
  3 33  1  0  0  0
  3 34  1  0  0  0
  4  5  2  0  0  0
  4  6  1  0  0  0
  6  7  2  0  0  0
  6 27  1  0  0  0
  7  8  1  0  0  0
  7 35  1  0  0  0
  8  9  1  0  0  0
  8 25  2  0  0  0
  9 10  1  0  0  0
  9 17  1  0  0  0
 10 11  2  0  0  0
 10 15  1  0  0  0
 11 12  1  0  0  0
 11 36  1  0  0  0
 12 13  2  0  0  0
 12 37  1  0  0  0
 13 14  1  0  0  0
 13 38  1  0  0  0
 14 15  2  0  0  0
 14 39  1  0  0  0
 15 16  1  0  0  0
 16 17  2  0  0  0
 16 40  1  0  0  0
 17 18  1  0  0  0
 18 19  2  0  0  0
 18 24  1  0  0  0
 19 20  1  0  0  0
 19 41  1  0  0  0
 20 21  2  0  0  0
 20 42  1  0  0  0
 21 22  1  0  0  0
 21 23  1  0  0  0
 22 43  1  0  0  0
 22 44  1  0  0  0
 23 24  2  0  0  0
 23 45  1  0  0  0
 24 46  1  0  0  0
 25 26  1  0  0  0
 25 47  1  0  0  0
 26 27  2  0  0  0
 26 48  1  0  0  0
 27 28  1  0  0  0
M  END
> <energy>
75.3354

> <i_ionizer_Ion_state_n>
0

> <i_ionizer_Tot_Q>
0

> <s_ionizer_Ion_centers>


> <s_ionizer_Ion_types>


> <s_ionizer_Ion_ctrs_in>


> <r_ionizer_Ionization_penalty>
0.000745426

> <r_ionizer_Ionization_penalty_charging>
0

> <r_ionizer_Ionization_penalty_neutral>
0.000745426

$$$$
ZINC001211858050
                    3D
 Schrodinger Suite 2019-4.
 40 41  0  0  1  0            999 V2000
    3.8708   -3.9347   -0.2173 C   0  0  0  0  0  0
    3.2509   -2.5727   -0.3064 C   0  0  0  0  0  0
    3.5989   -1.5777    0.6162 C   0  0  0  0  0  0
    3.0449   -0.2883    0.5451 C   0  0  0  0  0  0
    3.4553    0.7457    1.5589 C   0  0  0  0  0  0
    2.1106    0.0156   -0.4675 C   0  0  0  0  0  0
    1.6613    1.3610   -0.5877 N   0  0  0  0  0  0
    0.3152    1.7883   -0.4833 C   0  0  0  0  0  0
   -0.0633    3.0211   -1.0423 C   0  0  0  0  0  0
   -1.3705    3.4976   -0.9013 C   0  0  0  0  0  0
   -2.3023    2.7515   -0.1873 C   0  0  0  0  0  0
   -3.5491    3.2277   -0.0614 F   0  0  0  0  0  0
   -1.9371    1.5406    0.3909 C   0  0  0  0  0  0
   -2.8985    0.7677    1.1929 C   0  0  0  0  0  0
   -2.6638    0.6558    2.3939 O   0  0  0  0  0  0
   -4.0031    0.1850    0.5613 N   0  0  0  0  0  0
   -4.8875   -0.6324    1.3793 C   0  0  0  0  0  0
   -4.0515   -0.0627   -0.8703 C   0  0  0  0  0  0
   -0.6243    1.0743    0.2717 C   0  0  0  0  0  0
    1.7646   -0.9921   -1.3934 C   0  0  0  0  0  0
    0.5764   -0.6731   -2.8447 Br  0  0  0  0  0  0
    2.3132   -2.2749   -1.2968 C   0  0  0  0  0  0
    3.7444   -4.4915   -1.1526 H   0  0  0  0  0  0
    3.4156   -4.5089    0.5945 H   0  0  0  0  0  0
    4.9482   -3.8604   -0.0362 H   0  0  0  0  0  0
    4.3215   -1.8103    1.3955 H   0  0  0  0  0  0
    2.5833    1.1178    2.1048 H   0  0  0  0  0  0
    3.9583    1.5825    1.0665 H   0  0  0  0  0  0
    4.1484    0.3304    2.2981 H   0  0  0  0  0  0
    2.1241    1.7908   -1.3863 H   0  0  0  0  0  0
    0.6598    3.6231   -1.5892 H   0  0  0  0  0  0
   -1.6632    4.4478   -1.3390 H   0  0  0  0  0  0
   -4.9062   -0.2904    2.4188 H   0  0  0  0  0  0
   -5.9023   -0.5818    0.9737 H   0  0  0  0  0  0
   -4.5331   -1.6673    1.3523 H   0  0  0  0  0  0
   -5.0945   -0.1692   -1.1855 H   0  0  0  0  0  0
   -3.5958    0.7423   -1.4486 H   0  0  0  0  0  0
   -3.5046   -0.9892   -1.0767 H   0  0  0  0  0  0
   -0.3419    0.1535    0.7716 H   0  0  0  0  0  0
    2.0269   -3.0428   -2.0124 H   0  0  0  0  0  0
  1  2  1  0  0  0
  1 23  1  0  0  0
  1 24  1  0  0  0
  1 25  1  0  0  0
  2  3  2  0  0  0
  2 22  1  0  0  0
  3  4  1  0  0  0
  3 26  1  0  0  0
  4  5  1  0  0  0
  4  6  2  0  0  0
  5 27  1  0  0  0
  5 28  1  0  0  0
  5 29  1  0  0  0
  6  7  1  0  0  0
  6 20  1  0  0  0
  7  8  1  0  0  0
  7 30  1  0  0  0
  8  9  2  0  0  0
  8 19  1  0  0  0
  9 10  1  0  0  0
  9 31  1  0  0  0
 10 11  2  0  0  0
 10 32  1  0  0  0
 11 12  1  0  0  0
 11 13  1  0  0  0
 13 14  1  0  0  0
 13 19  2  0  0  0
 14 15  2  0  0  0
 14 16  1  0  0  0
 16 17  1  0  0  0
 16 18  1  0  0  0
 17 33  1  0  0  0
 17 34  1  0  0  0
 17 35  1  0  0  0
 18 36  1  0  0  0
 18 37  1  0  0  0
 18 38  1  0  0  0
 19 39  1  0  0  0
 20 21  1  0  0  0
 20 22  2  0  0  0
 22 40  1  0  0  0
M  END
> <energy>
48.983

> <i_ionizer_Ion_state_n>
0

> <i_ionizer_Tot_Q>
0

> <s_ionizer_Ion_centers>


> <s_ionizer_Ion_types>


> <s_ionizer_Ion_ctrs_in>


> <r_ionizer_Ionization_penalty>
0

> <r_ionizer_Ionization_penalty_charging>
0

> <r_ionizer_Ionization_penalty_neutral>
0

$$$$
ZINC001211858085
                    3D
 Schrodinger Suite 2019-4.
 47 49  0  0  1  0            999 V2000
    4.3062   -1.6636   -0.3906 C   0  0  0  0  0  0
    3.2093   -0.9025    0.1904 N   0  0  0  0  0  0
    1.8797   -1.4970    0.0759 C   0  0  0  0  0  0
    3.4868    0.2938    0.8474 C   0  0  0  0  0  0
    4.6249    0.6989    1.0717 O   0  0  0  0  0  0
    2.3649    1.1676    1.2404 C   0  0  0  0  0  0
    1.5193    1.6774    0.2502 C   0  0  0  0  0  0
    0.4733    2.5438    0.5891 C   0  0  0  0  0  0
   -0.4190    3.0009   -0.4243 N   0  0  0  0  0  0
   -1.0854    2.0351   -1.2455 C   0  0  0  0  0  0
   -2.0892    1.2318   -0.6915 C   0  0  0  0  0  0
   -2.6722    0.2206   -1.4517 C   0  0  0  0  0  0
   -3.6451   -0.5900   -0.9136 O   0  0  0  0  0  0
   -3.1732   -1.5186   -0.0138 C   0  0  0  0  0  0
   -3.2094   -1.2355    1.3521 C   0  0  0  0  0  0
   -2.7640   -2.1874    2.2693 C   0  0  0  0  0  0
   -2.3194   -3.4328    1.8208 C   0  0  0  0  0  0
   -2.3108   -3.7243    0.4549 C   0  0  0  0  0  0
   -2.7405   -2.7661   -0.4653 C   0  0  0  0  0  0
   -2.3279    0.0589   -2.7913 C   0  0  0  0  0  0
   -1.3258    0.8559   -3.3494 C   0  0  0  0  0  0
   -0.6552    1.8045   -2.5701 C   0  0  0  0  0  0
    0.3269    2.6293   -3.1488 N   0  0  0  0  0  0
    0.3206    2.9422    1.9233 C   0  0  0  0  0  0
    1.1700    2.4333    2.9113 C   0  0  0  0  0  0
    2.1895    1.5470    2.5664 C   0  0  0  0  0  0
    2.9785    1.0613    3.5365 F   0  0  0  0  0  0
    4.0911   -1.8405   -1.4505 H   0  0  0  0  0  0
    4.3763   -2.6268    0.1266 H   0  0  0  0  0  0
    5.2660   -1.1477   -0.3102 H   0  0  0  0  0  0
    1.9542   -2.5720    0.2645 H   0  0  0  0  0  0
    1.5093   -1.3321   -0.9390 H   0  0  0  0  0  0
    1.1766   -1.0755    0.7958 H   0  0  0  0  0  0
    1.6777    1.3933   -0.7853 H   0  0  0  0  0  0
   -1.1348    3.5869    0.0074 H   0  0  0  0  0  0
   -2.3966    1.3767    0.3388 H   0  0  0  0  0  0
   -3.5839   -0.2775    1.6996 H   0  0  0  0  0  0
   -2.7753   -1.9612    3.3339 H   0  0  0  0  0  0
   -1.9956   -4.1842    2.5411 H   0  0  0  0  0  0
   -1.9852   -4.7038    0.1081 H   0  0  0  0  0  0
   -2.7555   -3.0000   -1.5258 H   0  0  0  0  0  0
   -2.8369   -0.6817   -3.4029 H   0  0  0  0  0  0
   -1.0666    0.7360   -4.3975 H   0  0  0  0  0  0
    0.9416    2.1376   -3.7895 H   0  0  0  0  0  0
    0.8377    3.1270   -2.4188 H   0  0  0  0  0  0
   -0.4639    3.6369    2.2098 H   0  0  0  0  0  0
    1.0508    2.7241    3.9498 H   0  0  0  0  0  0
  1  2  1  0  0  0
  1 28  1  0  0  0
  1 29  1  0  0  0
  1 30  1  0  0  0
  2  3  1  0  0  0
  2  4  1  0  0  0
  3 31  1  0  0  0
  3 32  1  0  0  0
  3 33  1  0  0  0
  4  5  2  0  0  0
  4  6  1  0  0  0
  6  7  2  0  0  0
  6 26  1  0  0  0
  7  8  1  0  0  0
  7 34  1  0  0  0
  8  9  1  0  0  0
  8 24  2  0  0  0
  9 10  1  0  0  0
  9 35  1  0  0  0
 10 11  2  0  0  0
 10 22  1  0  0  0
 11 12  1  0  0  0
 11 36  1  0  0  0
 12 13  1  0  0  0
 12 20  2  0  0  0
 13 14  1  0  0  0
 14 15  2  0  0  0
 14 19  1  0  0  0
 15 16  1  0  0  0
 15 37  1  0  0  0
 16 17  2  0  0  0
 16 38  1  0  0  0
 17 18  1  0  0  0
 17 39  1  0  0  0
 18 19  2  0  0  0
 18 40  1  0  0  0
 19 41  1  0  0  0
 20 21  1  0  0  0
 20 42  1  0  0  0
 21 22  2  0  0  0
 21 43  1  0  0  0
 22 23  1  0  0  0
 23 44  1  0  0  0
 23 45  1  0  0  0
 24 25  1  0  0  0
 24 46  1  0  0  0
 25 26  2  0  0  0
 25 47  1  0  0  0
 26 27  1  0  0  0
M  END
> <energy>
63.152

> <i_ionizer_Ion_state_n>
0

> <i_ionizer_Tot_Q>
0

> <s_ionizer_Ion_centers>


> <s_ionizer_Ion_types>


> <s_ionizer_Ion_ctrs_in>


> <r_ionizer_Ionization_penalty>
0.000745426

> <r_ionizer_Ionization_penalty_charging>
0

> <r_ionizer_Ionization_penalty_neutral>
0.000745426

$$$$
ZINC001211858279
                    3D
 Schrodinger Suite 2019-4.
 37 38  0  0  1  0            999 V2000
    2.9228   -1.3308    0.4426 C   0  0  0  0  0  0
    3.8712   -0.4928   -0.2775 N   0  0  0  0  0  0
    5.2530   -0.9511   -0.2751 C   0  0  0  0  0  0
    3.6295    0.8503   -0.5993 C   0  0  0  0  0  0
    4.4791    1.6086   -1.0515 O   0  0  0  0  0  0
    2.2698    1.3883   -0.4095 C   0  0  0  0  0  0
    1.2143    0.9445   -1.2191 C   0  0  0  0  0  0
   -0.0866    1.4084   -0.9826 C   0  0  0  0  0  0
   -1.1882    0.8693   -1.7103 N   0  0  0  0  0  0
   -2.2212    0.1616   -1.0293 C   0  0  0  0  0  0
   -2.0458   -1.1883   -0.7073 C   0  0  0  0  0  0
   -2.9792   -1.8480    0.0935 C   0  0  0  0  0  0
   -2.7526   -3.1274    0.4198 F   0  0  0  0  0  0
   -4.1060   -1.1967    0.5959 C   0  0  0  0  0  0
   -5.0241   -1.9270    1.5298 C   0  0  0  0  0  0
   -5.5112   -3.0847    1.0115 F   0  0  0  0  0  0
   -4.4147   -2.2574    2.7001 F   0  0  0  0  0  0
   -6.1196   -1.1950    1.8825 F   0  0  0  0  0  0
   -4.3019    0.1476    0.2500 C   0  0  0  0  0  0
   -3.3676    0.8132   -0.5460 C   0  0  0  0  0  0
   -3.5742    2.1100   -0.8185 F   0  0  0  0  0  0
   -0.2915    2.3598    0.0288 C   0  0  0  0  0  0
    0.7736    2.8396    0.7940 C   0  0  0  0  0  0
    2.0555    2.3482    0.5730 C   0  0  0  0  0  0
    3.0610    2.8008    1.3340 F   0  0  0  0  0  0
    2.9003   -1.0265    1.4938 H   0  0  0  0  0  0
    1.9190   -1.2392    0.0255 H   0  0  0  0  0  0
    3.2289   -2.3792    0.3617 H   0  0  0  0  0  0
    5.6283   -0.9547    0.7529 H   0  0  0  0  0  0
    5.2897   -1.9665   -0.6783 H   0  0  0  0  0  0
    5.8995   -0.3143   -0.8830 H   0  0  0  0  0  0
    1.4222    0.2221   -2.0033 H   0  0  0  0  0  0
   -0.8355    0.2975   -2.4806 H   0  0  0  0  0  0
   -1.1586   -1.7276   -1.0242 H   0  0  0  0  0  0
   -5.1617    0.7012    0.6231 H   0  0  0  0  0  0
   -1.2897    2.7479    0.2167 H   0  0  0  0  0  0
    0.6126    3.5881    1.5659 H   0  0  0  0  0  0
  1  2  1  0  0  0
  1 26  1  0  0  0
  1 27  1  0  0  0
  1 28  1  0  0  0
  2  3  1  0  0  0
  2  4  1  0  0  0
  3 29  1  0  0  0
  3 30  1  0  0  0
  3 31  1  0  0  0
  4  5  2  0  0  0
  4  6  1  0  0  0
  6  7  2  0  0  0
  6 24  1  0  0  0
  7  8  1  0  0  0
  7 32  1  0  0  0
  8  9  1  0  0  0
  8 22  2  0  0  0
  9 10  1  0  0  0
  9 33  1  0  0  0
 10 11  2  0  0  0
 10 20  1  0  0  0
 11 12  1  0  0  0
 11 34  1  0  0  0
 12 13  1  0  0  0
 12 14  2  0  0  0
 14 15  1  0  0  0
 14 19  1  0  0  0
 15 16  1  0  0  0
 15 17  1  0  0  0
 15 18  1  0  0  0
 19 20  2  0  0  0
 19 35  1  0  0  0
 20 21  1  0  0  0
 22 23  1  0  0  0
 22 36  1  0  0  0
 23 24  2  0  0  0
 23 37  1  0  0  0
 24 25  1  0  0  0
M  END
> <energy>
44.6341

> <i_ionizer_Ion_state_n>
0

> <i_ionizer_Tot_Q>
0

> <s_ionizer_Ion_centers>


> <s_ionizer_Ion_types>


> <s_ionizer_Ion_ctrs_in>


> <r_ionizer_Ionization_penalty>
0

> <r_ionizer_Ionization_penalty_charging>
0

> <r_ionizer_Ionization_penalty_neutral>
0

$$$$
ZINC001211858322
                    3D
 Schrodinger Suite 2019-4.
 37 38  0  0  1  0            999 V2000
    0.9222   -2.2738    0.7716 C   0  0  0  0  0  0
    1.8947   -2.5056   -0.2892 N   0  0  0  0  0  0
    1.8866   -3.8237   -0.9087 C   0  0  0  0  0  0
    2.7331   -1.5185   -0.8114 C   0  0  0  0  0  0
    3.5711   -1.7137   -1.6888 O   0  0  0  0  0  0
    2.5395   -0.1353   -0.3548 C   0  0  0  0  0  0
    1.3923    0.5452   -0.7764 C   0  0  0  0  0  0
    1.1441    1.8452   -0.3208 C   0  0  0  0  0  0
   -0.0872    2.4818   -0.6309 N   0  0  0  0  0  0
   -1.3000    1.9885   -0.0378 C   0  0  0  0  0  0
   -1.4941    2.1325    1.3407 C   0  0  0  0  0  0
   -2.6415    1.6229    1.9487 C   0  0  0  0  0  0
   -3.5839    0.9268    1.1908 C   0  0  0  0  0  0
   -3.3969    0.7361   -0.1915 C   0  0  0  0  0  0
   -4.3780   -0.0974   -0.9735 C   0  0  0  0  0  0
   -5.0211    0.5958   -1.9521 F   0  0  0  0  0  0
   -5.3694   -0.6208   -0.1941 F   0  0  0  0  0  0
   -3.7983   -1.1747   -1.5759 F   0  0  0  0  0  0
   -2.2686    1.3009   -0.8022 C   0  0  0  0  0  0
   -2.0108    1.1348   -2.5120 Cl  0  0  0  0  0  0
    2.0718    2.4681    0.5213 C   0  0  0  0  0  0
    3.2352    1.7959    0.9129 C   0  0  0  0  0  0
    3.4617    0.4902    0.4772 C   0  0  0  0  0  0
    4.5580   -0.1545    0.9000 F   0  0  0  0  0  0
   -0.0634   -2.1294    0.3203 H   0  0  0  0  0  0
    1.1730   -1.3955    1.3681 H   0  0  0  0  0  0
    0.8979   -3.1379    1.4392 H   0  0  0  0  0  0
    0.9130   -3.9886   -1.3807 H   0  0  0  0  0  0
    2.6621   -3.9259   -1.6742 H   0  0  0  0  0  0
    2.0482   -4.5872   -0.1415 H   0  0  0  0  0  0
    0.6871    0.0404   -1.4310 H   0  0  0  0  0  0
   -0.2184    2.3992   -1.6463 H   0  0  0  0  0  0
   -0.7470    2.6414    1.9456 H   0  0  0  0  0  0
   -2.7895    1.7585    3.0177 H   0  0  0  0  0  0
   -4.4669    0.5277    1.6897 H   0  0  0  0  0  0
    1.8876    3.4783    0.8767 H   0  0  0  0  0  0
    3.9555    2.2723    1.5733 H   0  0  0  0  0  0
  1  2  1  0  0  0
  1 25  1  0  0  0
  1 26  1  0  0  0
  1 27  1  0  0  0
  2  3  1  0  0  0
  2  4  1  0  0  0
  3 28  1  0  0  0
  3 29  1  0  0  0
  3 30  1  0  0  0
  4  5  2  0  0  0
  4  6  1  0  0  0
  6  7  2  0  0  0
  6 23  1  0  0  0
  7  8  1  0  0  0
  7 31  1  0  0  0
  8  9  1  0  0  0
  8 21  2  0  0  0
  9 10  1  0  0  0
  9 32  1  0  0  0
 10 11  2  0  0  0
 10 19  1  0  0  0
 11 12  1  0  0  0
 11 33  1  0  0  0
 12 13  2  0  0  0
 12 34  1  0  0  0
 13 14  1  0  0  0
 13 35  1  0  0  0
 14 15  1  0  0  0
 14 19  2  0  0  0
 15 16  1  0  0  0
 15 17  1  0  0  0
 15 18  1  0  0  0
 19 20  1  0  0  0
 21 22  1  0  0  0
 21 36  1  0  0  0
 22 23  2  0  0  0
 22 37  1  0  0  0
 23 24  1  0  0  0
M  END
> <energy>
51.5083

> <i_ionizer_Ion_state_n>
0

> <i_ionizer_Tot_Q>
0

> <s_ionizer_Ion_centers>


> <s_ionizer_Ion_types>


> <s_ionizer_Ion_ctrs_in>


> <r_ionizer_Ionization_penalty>
0

> <r_ionizer_Ionization_penalty_charging>
0

> <r_ionizer_Ionization_penalty_neutral>
0

$$$$
ZINC001211858372
                    3D
 Schrodinger Suite 2019-4.
 48 50  0  0  1  0            999 V2000
   -0.9049    4.6110    0.0997 C   0  0  0  0  0  0
    0.1393    3.7087   -0.3650 N   0  0  0  0  0  0
   -0.2188    2.8186   -1.4604 C   0  0  0  0  0  0
    1.2829    3.5506    0.4211 C   0  0  0  0  0  0
    1.5160    4.1903    1.4445 O   0  0  0  0  0  0
    2.2487    2.5031    0.0516 C   0  0  0  0  0  0
    2.1894    1.2678    0.7025 C   0  0  0  0  0  0
    3.0795    0.2531    0.3371 C   0  0  0  0  0  0
    3.0152   -1.0240    0.9400 N   0  0  0  0  0  0
    1.9534   -1.9432    0.7331 C   0  0  0  0  0  0
    1.8448   -3.0539    1.5769 C   0  0  0  0  0  0
    0.8313   -3.9943    1.3837 C   0  0  0  0  0  0
   -0.0814   -3.8429    0.3382 C   0  0  0  0  0  0
    0.0345   -2.7626   -0.5421 C   0  0  0  0  0  0
   -0.9643   -2.5473   -1.6543 C   0  0  0  0  0  0
   -1.6587   -1.2991   -1.4965 O   0  0  0  0  0  0
   -2.6175   -1.3293   -0.5174 C   0  0  0  0  0  0
   -2.5172   -0.3886    0.5063 C   0  0  0  0  0  0
   -3.4772   -0.3565    1.5211 C   0  0  0  0  0  0
   -4.5397   -1.2634    1.5029 C   0  0  0  0  0  0
   -4.6495   -2.1886    0.4646 C   0  0  0  0  0  0
   -3.6940   -2.2166   -0.5541 C   0  0  0  0  0  0
    1.0736   -1.8401   -0.3541 C   0  0  0  0  0  0
    4.0345    0.4938   -0.6597 C   0  0  0  0  0  0
    4.1089    1.7398   -1.2868 C   0  0  0  0  0  0
    3.2151    2.7458   -0.9234 C   0  0  0  0  0  0
    3.2867    3.9292   -1.5453 F   0  0  0  0  0  0
   -1.6942    4.0190    0.5725 H   0  0  0  0  0  0
   -1.3193    5.1531   -0.7565 H   0  0  0  0  0  0
   -0.5274    5.3352    0.8265 H   0  0  0  0  0  0
    0.6639    2.4366   -1.9729 H   0  0  0  0  0  0
   -0.8315    3.3587   -2.1878 H   0  0  0  0  0  0
   -0.7844    1.9775   -1.0543 H   0  0  0  0  0  0
    1.4395    1.0991    1.4712 H   0  0  0  0  0  0
    3.1411   -0.9267    1.9479 H   0  0  0  0  0  0
    2.5347   -3.1852    2.4071 H   0  0  0  0  0  0
    0.7429   -4.8393    2.0600 H   0  0  0  0  0  0
   -0.8890   -4.5639    0.2261 H   0  0  0  0  0  0
   -1.6571   -3.3872   -1.7599 H   0  0  0  0  0  0
   -0.4190   -2.4925   -2.6033 H   0  0  0  0  0  0
   -1.6836    0.3093    0.5287 H   0  0  0  0  0  0
   -3.3951    0.3715    2.3256 H   0  0  0  0  0  0
   -5.2856   -1.2415    2.2937 H   0  0  0  0  0  0
   -5.4852   -2.8820    0.4407 H   0  0  0  0  0  0
   -3.8120   -2.9191   -1.3725 H   0  0  0  0  0  0
    1.1646   -1.0079   -1.0495 H   0  0  0  0  0  0
    4.7184   -0.3016   -0.9483 H   0  0  0  0  0  0
    4.8478    1.9252   -2.0594 H   0  0  0  0  0  0
  1  2  1  0  0  0
  1 28  1  0  0  0
  1 29  1  0  0  0
  1 30  1  0  0  0
  2  3  1  0  0  0
  2  4  1  0  0  0
  3 31  1  0  0  0
  3 32  1  0  0  0
  3 33  1  0  0  0
  4  5  2  0  0  0
  4  6  1  0  0  0
  6  7  2  0  0  0
  6 26  1  0  0  0
  7  8  1  0  0  0
  7 34  1  0  0  0
  8  9  1  0  0  0
  8 24  2  0  0  0
  9 10  1  0  0  0
  9 35  1  0  0  0
 10 11  2  0  0  0
 10 23  1  0  0  0
 11 12  1  0  0  0
 11 36  1  0  0  0
 12 13  2  0  0  0
 12 37  1  0  0  0
 13 14  1  0  0  0
 13 38  1  0  0  0
 14 15  1  0  0  0
 14 23  2  0  0  0
 15 16  1  0  0  0
 15 39  1  0  0  0
 15 40  1  0  0  0
 16 17  1  0  0  0
 17 18  2  0  0  0
 17 22  1  0  0  0
 18 19  1  0  0  0
 18 41  1  0  0  0
 19 20  2  0  0  0
 19 42  1  0  0  0
 20 21  1  0  0  0
 20 43  1  0  0  0
 21 22  2  0  0  0
 21 44  1  0  0  0
 22 45  1  0  0  0
 23 46  1  0  0  0
 24 25  1  0  0  0
 24 47  1  0  0  0
 25 26  2  0  0  0
 25 48  1  0  0  0
 26 27  1  0  0  0
M  END
> <energy>
58.3908

> <i_ionizer_Ion_state_n>
0

> <i_ionizer_Tot_Q>
0

> <s_ionizer_Ion_centers>


> <s_ionizer_Ion_types>


> <s_ionizer_Ion_ctrs_in>


> <r_ionizer_Ionization_penalty>
0

> <r_ionizer_Ionization_penalty_charging>
0

> <r_ionizer_Ionization_penalty_neutral>
0

$$$$
ZINC001211858473
                    3D
 Schrodinger Suite 2019-4.
 34 35  0  0  1  0            999 V2000
    2.6739   -1.6745    1.0035 C   0  0  0  0  0  0
    3.5084   -1.0394   -0.0084 N   0  0  0  0  0  0
    4.5326   -1.8740   -0.6136 C   0  0  0  0  0  0
    3.1517    0.1336   -0.6759 C   0  0  0  0  0  0
    3.7235    0.5563   -1.6760 O   0  0  0  0  0  0
    1.9554    0.8621   -0.2338 C   0  0  0  0  0  0
    0.7974    0.7593   -1.0096 C   0  0  0  0  0  0
   -0.3974    1.3432   -0.5702 C   0  0  0  0  0  0
   -1.5898    1.1423   -1.3226 N   0  0  0  0  0  0
   -2.7471    0.5461   -0.7456 C   0  0  0  0  0  0
   -3.6312    1.3316    0.0028 C   0  0  0  0  0  0
   -4.7387    0.7549    0.6315 C   0  0  0  0  0  0
   -4.9705   -0.6122    0.5192 C   0  0  0  0  0  0
   -6.3448   -1.3078    1.2888 Cl  0  0  0  0  0  0
   -4.1015   -1.4156   -0.2114 C   0  0  0  0  0  0
   -2.9924   -0.8393   -0.8351 C   0  0  0  0  0  0
   -1.8258   -1.9852   -1.8031 Br  0  0  0  0  0  0
   -0.3851    2.0904    0.6167 C   0  0  0  0  0  0
    0.7862    2.2291    1.3678 C   0  0  0  0  0  0
    1.9552    1.6093    0.9384 C   0  0  0  0  0  0
    3.0580    1.7150    1.6891 F   0  0  0  0  0  0
    3.2937   -2.3066    1.6440 H   0  0  0  0  0  0
    1.9127   -2.2822    0.5008 H   0  0  0  0  0  0
    2.1788   -0.9365    1.6329 H   0  0  0  0  0  0
    4.0454   -2.6577   -1.2028 H   0  0  0  0  0  0
    5.1383   -2.3303    0.1722 H   0  0  0  0  0  0
    5.1884   -1.2976   -1.2693 H   0  0  0  0  0  0
    0.8359    0.1912   -1.9382 H   0  0  0  0  0  0
   -1.3473    0.5981   -2.1553 H   0  0  0  0  0  0
   -3.4703    2.4034    0.0909 H   0  0  0  0  0  0
   -5.4137    1.3817    1.2069 H   0  0  0  0  0  0
   -4.2839   -2.4855   -0.2846 H   0  0  0  0  0  0
   -1.2859    2.5850    0.9648 H   0  0  0  0  0  0
    0.7897    2.8117    2.2849 H   0  0  0  0  0  0
  1  2  1  0  0  0
  1 22  1  0  0  0
  1 23  1  0  0  0
  1 24  1  0  0  0
  2  3  1  0  0  0
  2  4  1  0  0  0
  3 25  1  0  0  0
  3 26  1  0  0  0
  3 27  1  0  0  0
  4  5  2  0  0  0
  4  6  1  0  0  0
  6  7  2  0  0  0
  6 20  1  0  0  0
  7  8  1  0  0  0
  7 28  1  0  0  0
  8  9  1  0  0  0
  8 18  2  0  0  0
  9 10  1  0  0  0
  9 29  1  0  0  0
 10 11  2  0  0  0
 10 16  1  0  0  0
 11 12  1  0  0  0
 11 30  1  0  0  0
 12 13  2  0  0  0
 12 31  1  0  0  0
 13 14  1  0  0  0
 13 15  1  0  0  0
 15 16  2  0  0  0
 15 32  1  0  0  0
 16 17  1  0  0  0
 18 19  1  0  0  0
 18 33  1  0  0  0
 19 20  2  0  0  0
 19 34  1  0  0  0
 20 21  1  0  0  0
M  END
> <energy>
36.6716

> <i_ionizer_Ion_state_n>
0

> <i_ionizer_Tot_Q>
0

> <s_ionizer_Ion_centers>


> <s_ionizer_Ion_types>


> <s_ionizer_Ion_ctrs_in>


> <r_ionizer_Ionization_penalty>
0

> <r_ionizer_Ionization_penalty_charging>
0

> <r_ionizer_Ionization_penalty_neutral>
0

$$$$
ZINC001211858479
                    3D
 Schrodinger Suite 2019-4.
 48 50  0  0  1  0            999 V2000
    3.5454    3.7743    1.3730 C   0  0  0  0  0  0
    2.5965    3.4603    0.3588 O   0  0  0  0  0  0
    2.4560    2.1184    0.1391 C   0  0  0  0  0  0
    2.2593    1.1768    1.1476 C   0  0  0  0  0  0
    2.1039   -0.1753    0.8162 C   0  0  0  0  0  0
    2.1265   -0.5965   -0.5225 C   0  0  0  0  0  0
    2.0050   -2.0183   -0.8846 C   0  0  0  0  0  0
    3.1579   -2.8238   -0.8151 C   0  0  0  0  0  0
    3.1294   -4.1625   -1.2084 C   0  0  0  0  0  0
    1.9487   -4.7213   -1.6866 C   0  0  0  0  0  0
    0.7931   -3.9424   -1.7693 C   0  0  0  0  0  0
    0.8052   -2.5924   -1.3732 C   0  0  0  0  0  0
   -0.4147   -1.8562   -1.4070 N   0  0  0  0  0  0
   -1.0644   -1.4312   -0.2206 C   0  0  0  0  0  0
   -1.3061   -2.3122    0.8450 C   0  0  0  0  0  0
   -1.9797   -1.8752    1.9872 C   0  0  0  0  0  0
   -2.4265   -0.5608    2.0640 C   0  0  0  0  0  0
   -3.0719   -0.1640    3.1678 F   0  0  0  0  0  0
   -2.2235    0.3069    0.9951 C   0  0  0  0  0  0
   -2.6442    1.7110    1.1139 C   0  0  0  0  0  0
   -2.0698    2.4000    1.9510 O   0  0  0  0  0  0
   -3.6310    2.1856    0.2510 N   0  0  0  0  0  0
   -4.4072    1.3582   -0.6588 C   0  0  0  0  0  0
   -3.9067    3.6122    0.2174 C   0  0  0  0  0  0
   -1.5540   -0.1251   -0.1534 C   0  0  0  0  0  0
    2.3025    0.3711   -1.5228 C   0  0  0  0  0  0
    2.4589    1.7184   -1.1942 C   0  0  0  0  0  0
    4.4788    3.2159    1.2367 H   0  0  0  0  0  0
    3.7798    4.8402    1.2871 H   0  0  0  0  0  0
    3.1280    3.6027    2.3691 H   0  0  0  0  0  0
    2.2009    1.4767    2.1891 H   0  0  0  0  0  0
    1.9459   -0.8993    1.6098 H   0  0  0  0  0  0
    4.0955   -2.3937   -0.4660 H   0  0  0  0  0  0
    4.0346   -4.7636   -1.1497 H   0  0  0  0  0  0
    1.9255   -5.7625   -1.9951 H   0  0  0  0  0  0
   -0.1229   -4.4041   -2.1283 H   0  0  0  0  0  0
   -1.0973   -2.3481   -1.9800 H   0  0  0  0  0  0
   -0.9596   -3.3406    0.7945 H   0  0  0  0  0  0
   -2.1564   -2.5501    2.8192 H   0  0  0  0  0  0
   -4.3929    0.3062   -0.3692 H   0  0  0  0  0  0
   -3.9961    1.4632   -1.6664 H   0  0  0  0  0  0
   -5.4461    1.6996   -0.6447 H   0  0  0  0  0  0
   -3.7070    3.9842   -0.7905 H   0  0  0  0  0  0
   -4.9600    3.7665    0.4591 H   0  0  0  0  0  0
   -3.2957    4.1718    0.9291 H   0  0  0  0  0  0
   -1.3638    0.5705   -0.9675 H   0  0  0  0  0  0
    2.3221    0.0736   -2.5676 H   0  0  0  0  0  0
    2.5978    2.4551   -1.9789 H   0  0  0  0  0  0
  1  2  1  0  0  0
  1 28  1  0  0  0
  1 29  1  0  0  0
  1 30  1  0  0  0
  2  3  1  0  0  0
  3  4  2  0  0  0
  3 27  1  0  0  0
  4  5  1  0  0  0
  4 31  1  0  0  0
  5  6  2  0  0  0
  5 32  1  0  0  0
  6  7  1  0  0  0
  6 26  1  0  0  0
  7  8  2  0  0  0
  7 12  1  0  0  0
  8  9  1  0  0  0
  8 33  1  0  0  0
  9 10  2  0  0  0
  9 34  1  0  0  0
 10 11  1  0  0  0
 10 35  1  0  0  0
 11 12  2  0  0  0
 11 36  1  0  0  0
 12 13  1  0  0  0
 13 14  1  0  0  0
 13 37  1  0  0  0
 14 15  2  0  0  0
 14 25  1  0  0  0
 15 16  1  0  0  0
 15 38  1  0  0  0
 16 17  2  0  0  0
 16 39  1  0  0  0
 17 18  1  0  0  0
 17 19  1  0  0  0
 19 20  1  0  0  0
 19 25  2  0  0  0
 20 21  2  0  0  0
 20 22  1  0  0  0
 22 23  1  0  0  0
 22 24  1  0  0  0
 23 40  1  0  0  0
 23 41  1  0  0  0
 23 42  1  0  0  0
 24 43  1  0  0  0
 24 44  1  0  0  0
 24 45  1  0  0  0
 25 46  1  0  0  0
 26 27  2  0  0  0
 26 47  1  0  0  0
 27 48  1  0  0  0
M  END
> <energy>
71.4879

> <i_ionizer_Ion_state_n>
0

> <i_ionizer_Tot_Q>
0

> <s_ionizer_Ion_centers>


> <s_ionizer_Ion_types>


> <s_ionizer_Ion_ctrs_in>


> <r_ionizer_Ionization_penalty>
0

> <r_ionizer_Ionization_penalty_charging>
0

> <r_ionizer_Ionization_penalty_neutral>
0

$$$$
ZINC001211858498
                    3D
 Schrodinger Suite 2019-4.
 47 48  0  0  1  0            999 V2000
   -2.9648    3.8007    0.9005 C   0  0  0  0  0  0
   -3.1418    2.7258   -0.1559 C   0  0  0  0  0  0
   -2.7927    1.3445    0.3842 C   0  0  0  0  0  0
   -2.8975    0.2811   -0.7096 C   0  0  0  0  0  0
   -2.6352   -0.9779   -0.0905 O   0  0  0  0  0  0
   -1.9459   -1.8718   -0.8686 C   0  0  0  0  0  0
   -0.9695   -2.6332   -0.1919 C   0  0  0  0  0  0
   -0.6891   -2.3595    1.1809 N   0  0  0  0  0  0
    0.2539   -1.3717    1.5870 C   0  0  0  0  0  0
   -0.0246   -0.5991    2.7277 C   0  0  0  0  0  0
    0.8823    0.3607    3.1863 C   0  0  0  0  0  0
    2.0977    0.5241    2.5319 C   0  0  0  0  0  0
    2.9549    1.4480    2.9863 F   0  0  0  0  0  0
    2.3983   -0.2523    1.4184 C   0  0  0  0  0  0
    3.7062   -0.1093    0.7657 C   0  0  0  0  0  0
    4.6424   -0.7416    1.2445 O   0  0  0  0  0  0
    3.7978    0.6925   -0.3694 N   0  0  0  0  0  0
    5.0656    0.7558   -1.0823 C   0  0  0  0  0  0
    2.6861    1.4194   -0.9642 C   0  0  0  0  0  0
    1.4870   -1.2041    0.9443 C   0  0  0  0  0  0
   -0.2154   -3.5816   -0.8945 C   0  0  0  0  0  0
   -0.4560   -3.7915   -2.2558 C   0  0  0  0  0  0
   -1.4292   -3.0398   -2.9133 C   0  0  0  0  0  0
   -1.6371   -3.2427   -4.2222 F   0  0  0  0  0  0
   -2.1766   -2.0875   -2.2275 C   0  0  0  0  0  0
   -3.1166   -1.3931   -2.8861 F   0  0  0  0  0  0
   -3.5978    3.6099    1.7731 H   0  0  0  0  0  0
   -1.9234    3.8515    1.2338 H   0  0  0  0  0  0
   -3.2355    4.7777    0.4898 H   0  0  0  0  0  0
   -2.5076    2.9669   -1.0173 H   0  0  0  0  0  0
   -4.1803    2.7286   -0.5081 H   0  0  0  0  0  0
   -1.7755    1.3406    0.7980 H   0  0  0  0  0  0
   -3.4606    1.0794    1.2131 H   0  0  0  0  0  0
   -3.9106    0.2546   -1.1234 H   0  0  0  0  0  0
   -2.1788    0.5145   -1.5068 H   0  0  0  0  0  0
   -1.5902   -2.1062    1.5998 H   0  0  0  0  0  0
   -0.9614   -0.7291    3.2627 H   0  0  0  0  0  0
    0.6491    0.9676    4.0571 H   0  0  0  0  0  0
    5.3749    1.8012   -1.1617 H   0  0  0  0  0  0
    5.8569    0.1949   -0.5777 H   0  0  0  0  0  0
    4.9259    0.3400   -2.0840 H   0  0  0  0  0  0
    2.3706    0.8900   -1.8662 H   0  0  0  0  0  0
    3.0171    2.4289   -1.2242 H   0  0  0  0  0  0
    1.8309    1.5042   -0.2892 H   0  0  0  0  0  0
    1.7608   -1.8132    0.0859 H   0  0  0  0  0  0
    0.5490   -4.1576   -0.3754 H   0  0  0  0  0  0
    0.1063   -4.5405   -2.8050 H   0  0  0  0  0  0
  1  2  1  0  0  0
  1 27  1  0  0  0
  1 28  1  0  0  0
  1 29  1  0  0  0
  2  3  1  0  0  0
  2 30  1  0  0  0
  2 31  1  0  0  0
  3  4  1  0  0  0
  3 32  1  0  0  0
  3 33  1  0  0  0
  4  5  1  0  0  0
  4 34  1  0  0  0
  4 35  1  0  0  0
  5  6  1  0  0  0
  6  7  2  0  0  0
  6 25  1  0  0  0
  7  8  1  0  0  0
  7 21  1  0  0  0
  8  9  1  0  0  0
  8 36  1  0  0  0
  9 10  2  0  0  0
  9 20  1  0  0  0
 10 11  1  0  0  0
 10 37  1  0  0  0
 11 12  2  0  0  0
 11 38  1  0  0  0
 12 13  1  0  0  0
 12 14  1  0  0  0
 14 15  1  0  0  0
 14 20  2  0  0  0
 15 16  2  0  0  0
 15 17  1  0  0  0
 17 18  1  0  0  0
 17 19  1  0  0  0
 18 39  1  0  0  0
 18 40  1  0  0  0
 18 41  1  0  0  0
 19 42  1  0  0  0
 19 43  1  0  0  0
 19 44  1  0  0  0
 20 45  1  0  0  0
 21 22  2  0  0  0
 21 46  1  0  0  0
 22 23  1  0  0  0
 22 47  1  0  0  0
 23 24  1  0  0  0
 23 25  2  0  0  0
 25 26  1  0  0  0
M  END
> <energy>
55.7364

> <i_ionizer_Ion_state_n>
0

> <i_ionizer_Tot_Q>
0

> <s_ionizer_Ion_centers>


> <s_ionizer_Ion_types>


> <s_ionizer_Ion_ctrs_in>


> <r_ionizer_Ionization_penalty>
0

> <r_ionizer_Ionization_penalty_charging>
0

> <r_ionizer_Ionization_penalty_neutral>
0

$$$$
ZINC001211858509
                    3D
 Schrodinger Suite 2019-4.
 37 38  0  0  1  0            999 V2000
    2.4757   -1.2749   -1.4856 C   0  0  0  0  0  0
    3.0363   -1.0759   -0.1561 N   0  0  0  0  0  0
    3.6291   -2.2516    0.4640 C   0  0  0  0  0  0
    2.8985    0.0852    0.5984 C   0  0  0  0  0  0
    3.3661    0.2494    1.7219 O   0  0  0  0  0  0
    2.0776    1.1716    0.0528 C   0  0  0  0  0  0
    0.6828    1.0536    0.1212 C   0  0  0  0  0  0
   -0.1349    2.0703   -0.3815 C   0  0  0  0  0  0
   -1.5507    2.0015   -0.3664 N   0  0  0  0  0  0
   -2.3186    0.8267   -0.1802 C   0  0  0  0  0  0
   -2.3983    0.1960    1.0713 C   0  0  0  0  0  0
   -3.1155   -1.0059    1.2271 C   0  0  0  0  0  0
   -3.2025   -1.7284    2.5450 C   0  0  0  0  0  0
   -2.7304   -0.9924    3.5888 F   0  0  0  0  0  0
   -2.4824   -2.8832    2.5575 F   0  0  0  0  0  0
   -4.4756   -2.0694    2.8832 F   0  0  0  0  0  0
   -3.7415   -1.5607    0.1079 C   0  0  0  0  0  0
   -4.4266   -2.7069    0.2264 F   0  0  0  0  0  0
   -3.6620   -0.9605   -1.1433 C   0  0  0  0  0  0
   -2.9506    0.2246   -1.2776 C   0  0  0  0  0  0
   -2.8485    0.7882   -2.4901 F   0  0  0  0  0  0
    0.4793    3.2407   -0.8578 C   0  0  0  0  0  0
    1.8708    3.3542   -0.9291 C   0  0  0  0  0  0
    2.6703    2.3086   -0.4804 C   0  0  0  0  0  0
    4.0030    2.4087   -0.5866 F   0  0  0  0  0  0
    3.1817   -1.8592   -2.0828 H   0  0  0  0  0  0
    1.5386   -1.8281   -1.3879 H   0  0  0  0  0  0
    2.2883   -0.3325   -2.0005 H   0  0  0  0  0  0
    4.3738   -2.6756   -0.2141 H   0  0  0  0  0  0
    2.8395   -2.9867    0.6338 H   0  0  0  0  0  0
    4.1078   -2.0242    1.4220 H   0  0  0  0  0  0
    0.2622    0.1469    0.5464 H   0  0  0  0  0  0
   -1.9183    2.5321   -1.1606 H   0  0  0  0  0  0
   -1.8944    0.6433    1.9281 H   0  0  0  0  0  0
   -4.1403   -1.4144   -2.0038 H   0  0  0  0  0  0
   -0.1276    4.0787   -1.1882 H   0  0  0  0  0  0
    2.3373    4.2502   -1.3230 H   0  0  0  0  0  0
  1  2  1  0  0  0
  1 26  1  0  0  0
  1 27  1  0  0  0
  1 28  1  0  0  0
  2  3  1  0  0  0
  2  4  1  0  0  0
  3 29  1  0  0  0
  3 30  1  0  0  0
  3 31  1  0  0  0
  4  5  2  0  0  0
  4  6  1  0  0  0
  6  7  2  0  0  0
  6 24  1  0  0  0
  7  8  1  0  0  0
  7 32  1  0  0  0
  8  9  1  0  0  0
  8 22  2  0  0  0
  9 10  1  0  0  0
  9 33  1  0  0  0
 10 11  2  0  0  0
 10 20  1  0  0  0
 11 12  1  0  0  0
 11 34  1  0  0  0
 12 13  1  0  0  0
 12 17  2  0  0  0
 13 14  1  0  0  0
 13 15  1  0  0  0
 13 16  1  0  0  0
 17 18  1  0  0  0
 17 19  1  0  0  0
 19 20  2  0  0  0
 19 35  1  0  0  0
 20 21  1  0  0  0
 22 23  1  0  0  0
 22 36  1  0  0  0
 23 24  2  0  0  0
 23 37  1  0  0  0
 24 25  1  0  0  0
M  END
> <energy>
33.4728

> <i_ionizer_Ion_state_n>
0

> <i_ionizer_Tot_Q>
0

> <s_ionizer_Ion_centers>


> <s_ionizer_Ion_types>


> <s_ionizer_Ion_ctrs_in>


> <r_ionizer_Ionization_penalty>
0

> <r_ionizer_Ionization_penalty_charging>
0

> <r_ionizer_Ionization_penalty_neutral>
0

$$$$
ZINC001211858539
                    3D
 Schrodinger Suite 2019-4.
 34 35  0  0  1  0            999 V2000
    4.5612   -1.7273    0.8027 C   0  0  0  0  0  0
    3.2847   -1.1065    0.4776 N   0  0  0  0  0  0
    2.4839   -1.7832   -0.5353 C   0  0  0  0  0  0
    3.0877    0.2172    0.8679 C   0  0  0  0  0  0
    3.8400    0.8419    1.6107 O   0  0  0  0  0  0
    1.9004    0.9184    0.3645 C   0  0  0  0  0  0
    0.6647    0.7633    1.0025 C   0  0  0  0  0  0
   -0.4538    1.4360    0.4998 C   0  0  0  0  0  0
   -1.7244    1.2939    1.1225 N   0  0  0  0  0  0
   -2.7248    0.4506    0.5623 C   0  0  0  0  0  0
   -2.4734   -0.9134    0.3683 C   0  0  0  0  0  0
   -3.4185   -1.7320   -0.2566 C   0  0  0  0  0  0
   -4.6318   -1.1951   -0.6953 C   0  0  0  0  0  0
   -5.7189   -2.2542   -1.5178 Cl  0  0  0  0  0  0
   -4.9096    0.1574   -0.4777 C   0  0  0  0  0  0
   -6.5294    0.9701   -1.0423 Br  0  0  0  0  0  0
   -3.9623    0.9736    0.1591 C   0  0  0  0  0  0
   -0.3256    2.2324   -0.6518 C   0  0  0  0  0  0
    0.9125    2.3831   -1.2774 C   0  0  0  0  0  0
    2.0237    1.7351   -0.7544 C   0  0  0  0  0  0
    3.2085    1.8960   -1.3615 F   0  0  0  0  0  0
    5.0463   -1.2530    1.6599 H   0  0  0  0  0  0
    5.2209   -1.6380   -0.0665 H   0  0  0  0  0  0
    4.4025   -2.7867    1.0258 H   0  0  0  0  0  0
    1.4820   -1.3564   -0.6368 H   0  0  0  0  0  0
    2.9968   -1.7040   -1.4982 H   0  0  0  0  0  0
    2.3757   -2.8346   -0.2576 H   0  0  0  0  0  0
    0.5793    0.1350    1.8844 H   0  0  0  0  0  0
   -2.1150    2.2286    1.2471 H   0  0  0  0  0  0
   -1.5313   -1.3450    0.6998 H   0  0  0  0  0  0
   -3.1933   -2.7836   -0.4122 H   0  0  0  0  0  0
   -4.1785    2.0307    0.3065 H   0  0  0  0  0  0
   -1.1960    2.7406   -1.0636 H   0  0  0  0  0  0
    1.0158    3.0091   -2.1566 H   0  0  0  0  0  0
  1  2  1  0  0  0
  1 22  1  0  0  0
  1 23  1  0  0  0
  1 24  1  0  0  0
  2  3  1  0  0  0
  2  4  1  0  0  0
  3 25  1  0  0  0
  3 26  1  0  0  0
  3 27  1  0  0  0
  4  5  2  0  0  0
  4  6  1  0  0  0
  6  7  2  0  0  0
  6 20  1  0  0  0
  7  8  1  0  0  0
  7 28  1  0  0  0
  8  9  1  0  0  0
  8 18  2  0  0  0
  9 10  1  0  0  0
  9 29  1  0  0  0
 10 11  2  0  0  0
 10 17  1  0  0  0
 11 12  1  0  0  0
 11 30  1  0  0  0
 12 13  2  0  0  0
 12 31  1  0  0  0
 13 14  1  0  0  0
 13 15  1  0  0  0
 15 16  1  0  0  0
 15 17  2  0  0  0
 17 32  1  0  0  0
 18 19  1  0  0  0
 18 33  1  0  0  0
 19 20  2  0  0  0
 19 34  1  0  0  0
 20 21  1  0  0  0
M  END
> <energy>
36.115

> <i_ionizer_Ion_state_n>
0

> <i_ionizer_Tot_Q>
0

> <s_ionizer_Ion_centers>


> <s_ionizer_Ion_types>


> <s_ionizer_Ion_ctrs_in>


> <r_ionizer_Ionization_penalty>
0

> <r_ionizer_Ionization_penalty_charging>
0

> <r_ionizer_Ionization_penalty_neutral>
0

$$$$
ZINC001211858557
                    3D
 Schrodinger Suite 2019-4.
 51 52  0  0  1  0            999 V2000
    2.5317   -4.4955    1.7773 C   0  0  0  0  0  0
    2.7192   -3.4801    0.7536 N   0  0  0  0  0  0
    4.0919   -3.2245    0.3465 C   0  0  0  0  0  0
    1.5986   -2.8485    0.2197 C   0  0  0  0  0  0
    0.4403   -3.1390    0.5048 O   0  0  0  0  0  0
    1.7964   -1.7016   -0.6769 C   0  0  0  0  0  0
    2.1926   -0.4750   -0.1350 C   0  0  0  0  0  0
    2.2788    0.6538   -0.9607 C   0  0  0  0  0  0
    2.5044    1.9448   -0.3893 N   0  0  0  0  0  0
    1.3549    2.7477   -0.1109 C   0  0  0  0  0  0
    0.8829    3.6457   -1.0725 C   0  0  0  0  0  0
   -0.3545    4.2761   -0.9106 C   0  0  0  0  0  0
   -1.1502    3.9754    0.1937 C   0  0  0  0  0  0
   -0.6892    3.0725    1.1486 C   0  0  0  0  0  0
   -1.5208    2.6603    2.2104 N   0  0  0  0  0  0
   -2.4089    1.6226    1.9835 C   0  0  0  0  0  0
   -2.6022    0.7845    2.8546 O   0  0  0  0  0  0
   -2.9359    1.6164    0.7353 O   0  0  0  0  0  0
   -3.3439    0.3780    0.1006 C   0  0  0  0  0  0
   -2.0797   -0.3834   -0.3186 C   0  0  0  0  0  0
   -4.1069    0.8086   -1.1608 C   0  0  0  0  0  0
   -4.2701   -0.4995    0.9475 C   0  0  0  0  0  0
    0.5737    2.4889    1.0220 C   0  0  0  0  0  0
    1.9646    0.5347   -2.3219 C   0  0  0  0  0  0
    1.5821   -0.6974   -2.8566 C   0  0  0  0  0  0
    1.4917   -1.8136   -2.0289 C   0  0  0  0  0  0
    1.1134   -2.9848   -2.5580 F   0  0  0  0  0  0
    2.8677   -5.4575    1.3825 H   0  0  0  0  0  0
    3.1388   -4.2302    2.6477 H   0  0  0  0  0  0
    1.4876   -4.5841    2.0883 H   0  0  0  0  0  0
    4.5946   -4.1783    0.1659 H   0  0  0  0  0  0
    4.1580   -2.6263   -0.5642 H   0  0  0  0  0  0
    4.5999   -2.7000    1.1595 H   0  0  0  0  0  0
    2.3747   -0.3970    0.9329 H   0  0  0  0  0  0
    2.9856    1.8030    0.5003 H   0  0  0  0  0  0
    1.4651    3.8357   -1.9693 H   0  0  0  0  0  0
   -0.7123    4.9707   -1.6668 H   0  0  0  0  0  0
   -2.1336    4.4266    0.2945 H   0  0  0  0  0  0
   -1.0321    2.4027    3.0608 H   0  0  0  0  0  0
   -1.4531    0.2356   -0.9716 H   0  0  0  0  0  0
   -1.4615   -0.6355    0.5497 H   0  0  0  0  0  0
   -2.3249   -1.3082   -0.8501 H   0  0  0  0  0  0
   -4.4180   -0.0539   -1.7591 H   0  0  0  0  0  0
   -3.4921    1.4622   -1.7884 H   0  0  0  0  0  0
   -4.9980    1.3879   -0.8942 H   0  0  0  0  0  0
   -3.7359   -0.9863    1.7694 H   0  0  0  0  0  0
   -4.7113   -1.3041    0.3470 H   0  0  0  0  0  0
   -5.0792    0.0918    1.3914 H   0  0  0  0  0  0
    0.9008    1.7506    1.7493 H   0  0  0  0  0  0
    1.9929    1.4147   -2.9638 H   0  0  0  0  0  0
    1.3316   -0.7878   -3.9092 H   0  0  0  0  0  0
  1  2  1  0  0  0
  1 28  1  0  0  0
  1 29  1  0  0  0
  1 30  1  0  0  0
  2  3  1  0  0  0
  2  4  1  0  0  0
  3 31  1  0  0  0
  3 32  1  0  0  0
  3 33  1  0  0  0
  4  5  2  0  0  0
  4  6  1  0  0  0
  6  7  2  0  0  0
  6 26  1  0  0  0
  7  8  1  0  0  0
  7 34  1  0  0  0
  8  9  1  0  0  0
  8 24  2  0  0  0
  9 10  1  0  0  0
  9 35  1  0  0  0
 10 11  2  0  0  0
 10 23  1  0  0  0
 11 12  1  0  0  0
 11 36  1  0  0  0
 12 13  2  0  0  0
 12 37  1  0  0  0
 13 14  1  0  0  0
 13 38  1  0  0  0
 14 15  1  0  0  0
 14 23  2  0  0  0
 15 16  1  0  0  0
 15 39  1  0  0  0
 16 17  2  0  0  0
 16 18  1  0  0  0
 18 19  1  0  0  0
 19 20  1  0  0  0
 19 21  1  0  0  0
 19 22  1  0  0  0
 20 40  1  0  0  0
 20 41  1  0  0  0
 20 42  1  0  0  0
 21 43  1  0  0  0
 21 44  1  0  0  0
 21 45  1  0  0  0
 22 46  1  0  0  0
 22 47  1  0  0  0
 22 48  1  0  0  0
 23 49  1  0  0  0
 24 25  1  0  0  0
 24 50  1  0  0  0
 25 26  2  0  0  0
 25 51  1  0  0  0
 26 27  1  0  0  0
M  END
> <energy>
13.5733

> <i_ionizer_Ion_state_n>
0

> <i_ionizer_Tot_Q>
0

> <s_ionizer_Ion_centers>


> <s_ionizer_Ion_types>


> <s_ionizer_Ion_ctrs_in>


> <r_ionizer_Ionization_penalty>
0

> <r_ionizer_Ionization_penalty_charging>
0

> <r_ionizer_Ionization_penalty_neutral>
0

$$$$
ZINC001211859040
                    3D
 Schrodinger Suite 2019-4.
 51 51  0  0  1  0            999 V2000
    5.0384   -2.2081    0.0547 C   0  0  0  0  0  0
    3.8353   -1.9250    0.7656 O   0  0  0  0  0  0
    3.0584   -0.9301    0.0955 C   0  0  0  0  0  0
    1.9369   -0.4706    1.0299 C   0  0  0  0  0  0
    1.1606    0.7702    0.5260 C   0  0  2  0  0  0
    0.6181    0.5152   -0.8050 N   0  0  0  0  0  0
   -0.3885   -0.3802   -1.0358 C   0  0  0  0  0  0
   -0.4522   -1.0138   -2.0793 O   0  0  0  0  0  0
   -1.2428   -0.4685    0.0071 O   0  0  0  0  0  0
   -2.1999   -1.5587    0.0509 C   0  0  1  0  0  0
   -2.7528   -1.5173    1.4753 C   0  0  0  0  0  0
   -3.3011   -1.4118   -1.0169 C   0  0  0  0  0  0
   -4.3785   -2.5204   -1.1089 C   0  0  0  0  0  0
   -5.6157   -2.2156   -0.2639 C   0  0  0  0  0  0
   -3.8512   -3.9269   -0.8236 C   0  0  0  0  0  0
    1.9050    2.1074    0.5455 C   0  0  0  0  0  0
    3.1704    2.2911    1.1235 C   0  0  0  0  0  0
    3.7908    3.5435    1.1287 C   0  0  0  0  0  0
    3.1515    4.6458    0.5692 C   0  0  0  0  0  0
    1.8740    4.5054    0.0095 C   0  0  0  0  0  0
    1.1869    5.7059   -0.5923 C   0  0  0  0  0  0
   -0.1019    5.4686   -0.9638 F   0  0  0  0  0  0
    1.1405    6.7690    0.2604 F   0  0  0  0  0  0
    1.8258    6.1520   -1.7127 F   0  0  0  0  0  0
    1.2643    3.2403    0.0080 C   0  0  0  0  0  0
    4.8233   -2.4475   -0.9910 H   0  0  0  0  0  0
    5.7160   -1.3478    0.1189 H   0  0  0  0  0  0
    5.5173   -3.0728    0.5211 H   0  0  0  0  0  0
    2.6391   -1.3765   -0.8123 H   0  0  0  0  0  0
    3.7030   -0.0953   -0.1913 H   0  0  0  0  0  0
    1.2423   -1.3167    1.1502 H   0  0  0  0  0  0
    2.3242   -0.2888    2.0402 H   0  0  0  0  0  0
    0.3136    0.8998    1.2128 H   0  0  0  0  0  0
    1.2544    0.6015   -1.5871 H   0  0  0  0  0  0
   -1.6420   -2.4914   -0.0888 H   0  0  0  0  0  0
   -3.3696   -2.3881    1.7101 H   0  0  0  0  0  0
   -1.9314   -1.4854    2.1990 H   0  0  0  0  0  0
   -3.3427   -0.6079    1.6427 H   0  0  0  0  0  0
   -3.7778   -0.4254   -0.9221 H   0  0  0  0  0  0
   -2.8162   -1.3804   -2.0000 H   0  0  0  0  0  0
   -4.7286   -2.5250   -2.1499 H   0  0  0  0  0  0
   -6.3995   -2.9581   -0.4498 H   0  0  0  0  0  0
   -5.4074   -2.2328    0.8065 H   0  0  0  0  0  0
   -6.0284   -1.2322   -0.5108 H   0  0  0  0  0  0
   -3.5815   -4.0578    0.2284 H   0  0  0  0  0  0
   -4.6130   -4.6793   -1.0563 H   0  0  0  0  0  0
   -2.9648   -4.1437   -1.4292 H   0  0  0  0  0  0
    3.7058    1.4674    1.5897 H   0  0  0  0  0  0
    4.7798    3.6603    1.5685 H   0  0  0  0  0  0
    3.6466    5.6188    0.5702 H   0  0  0  0  0  0
    0.2653    3.1374   -0.4173 H   0  0  0  0  0  0
  1  2  1  0  0  0
  1 26  1  0  0  0
  1 27  1  0  0  0
  1 28  1  0  0  0
  2  3  1  0  0  0
  3  4  1  0  0  0
  3 29  1  0  0  0
  3 30  1  0  0  0
  4  5  1  0  0  0
  4 31  1  0  0  0
  4 32  1  0  0  0
  5  6  1  0  0  0
  5 16  1  0  0  0
  5 33  1  0  0  0
  6  7  1  0  0  0
  6 34  1  0  0  0
  7  8  2  0  0  0
  7  9  1  0  0  0
  9 10  1  0  0  0
 10 11  1  0  0  0
 10 12  1  0  0  0
 10 35  1  0  0  0
 11 36  1  0  0  0
 11 37  1  0  0  0
 11 38  1  0  0  0
 12 13  1  0  0  0
 12 39  1  0  0  0
 12 40  1  0  0  0
 13 14  1  0  0  0
 13 15  1  0  0  0
 13 41  1  0  0  0
 14 42  1  0  0  0
 14 43  1  0  0  0
 14 44  1  0  0  0
 15 45  1  0  0  0
 15 46  1  0  0  0
 15 47  1  0  0  0
 16 17  2  0  0  0
 16 25  1  0  0  0
 17 18  1  0  0  0
 17 48  1  0  0  0
 18 19  2  0  0  0
 18 49  1  0  0  0
 19 20  1  0  0  0
 19 50  1  0  0  0
 20 21  1  0  0  0
 20 25  2  0  0  0
 21 22  1  0  0  0
 21 23  1  0  0  0
 21 24  1  0  0  0
 25 51  1  0  0  0
M  END
> <energy>
0.206255

> <i_ionizer_Ion_state_n>
0

> <i_ionizer_Tot_Q>
0

> <s_ionizer_Ion_centers>


> <s_ionizer_Ion_types>


> <s_ionizer_Ion_ctrs_in>


> <r_ionizer_Ionization_penalty>
0

> <r_ionizer_Ionization_penalty_charging>
0

> <r_ionizer_Ionization_penalty_neutral>
0

$$$$
ZINC001211859041
                    3D
 Schrodinger Suite 2019-4.
 51 51  0  0  1  0            999 V2000
    2.5637   -1.0913    3.5190 C   0  0  0  0  0  0
    2.2213   -1.3885    2.1707 O   0  0  0  0  0  0
    3.2536   -1.0068    1.2602 C   0  0  0  0  0  0
    2.8505   -1.4699   -0.1354 C   0  0  0  0  0  0
    1.6235   -0.7090   -0.6880 C   0  0  2  0  0  0
    1.0933   -1.4626   -1.8170 N   0  0  0  0  0  0
   -0.1388   -1.5123   -2.3892 C   0  0  0  0  0  0
   -0.2080   -1.8888   -3.5617 O   0  0  0  0  0  0
   -1.2502   -1.1191   -1.7302 O   0  0  0  0  0  0
   -1.5842   -1.3095   -0.3329 C   0  0  2  0  0  0
   -1.2871   -2.7244    0.1554 C   0  0  0  0  0  0
   -3.0973   -1.0082   -0.2309 C   0  0  0  0  0  0
   -3.5121   -0.4198    1.1330 C   0  0  0  0  0  0
   -4.9455   -0.8097    1.5020 C   0  0  0  0  0  0
   -3.3893    1.1116    1.1044 C   0  0  0  0  0  0
    1.8946    0.7337   -1.1115 C   0  0  0  0  0  0
    3.0811    1.1204   -1.7523 C   0  0  0  0  0  0
    3.2868    2.4457   -2.1566 C   0  0  0  0  0  0
    2.3027    3.4094   -1.9445 C   0  0  0  0  0  0
    1.0987    3.0501   -1.3333 C   0  0  0  0  0  0
   -0.0030    4.0572   -1.1196 C   0  0  0  0  0  0
   -0.3702    4.1503    0.1888 F   0  0  0  0  0  0
   -1.1365    3.7453   -1.8054 F   0  0  0  0  0  0
    0.3258    5.3243   -1.5006 F   0  0  0  0  0  0
    0.9073    1.7148   -0.9198 C   0  0  0  0  0  0
    1.7536   -1.4474    4.1602 H   0  0  0  0  0  0
    3.4840   -1.6111    3.8000 H   0  0  0  0  0  0
    2.6721   -0.0109    3.6473 H   0  0  0  0  0  0
    4.1903   -1.5031    1.5421 H   0  0  0  0  0  0
    3.4007    0.0788    1.2922 H   0  0  0  0  0  0
    3.7052   -1.4047   -0.8171 H   0  0  0  0  0  0
    2.5955   -2.5393   -0.0767 H   0  0  0  0  0  0
    0.8884   -0.6961    0.1105 H   0  0  0  0  0  0
    1.7816   -1.7036   -2.5170 H   0  0  0  0  0  0
   -1.0495   -0.5637    0.2541 H   0  0  0  0  0  0
   -1.7279   -3.4726   -0.5093 H   0  0  0  0  0  0
   -1.6681   -2.8851    1.1667 H   0  0  0  0  0  0
   -0.2171   -2.9376    0.1726 H   0  0  0  0  0  0
   -3.6598   -1.9236   -0.4414 H   0  0  0  0  0  0
   -3.3894   -0.3100   -1.0246 H   0  0  0  0  0  0
   -2.8541   -0.8048    1.9205 H   0  0  0  0  0  0
   -5.6597   -0.4802    0.7409 H   0  0  0  0  0  0
   -5.2368   -0.3561    2.4557 H   0  0  0  0  0  0
   -5.0373   -1.8947    1.6199 H   0  0  0  0  0  0
   -3.6061    1.5333    2.0909 H   0  0  0  0  0  0
   -2.3784    1.4279    0.8244 H   0  0  0  0  0  0
   -4.0987    1.5515    0.3931 H   0  0  0  0  0  0
    3.8693    0.3992   -1.9617 H   0  0  0  0  0  0
    4.2208    2.7203   -2.6378 H   0  0  0  0  0  0
    2.4747    4.4363   -2.2697 H   0  0  0  0  0  0
   -0.0338    1.4542   -0.4404 H   0  0  0  0  0  0
  1  2  1  0  0  0
  1 26  1  0  0  0
  1 27  1  0  0  0
  1 28  1  0  0  0
  2  3  1  0  0  0
  3  4  1  0  0  0
  3 29  1  0  0  0
  3 30  1  0  0  0
  4  5  1  0  0  0
  4 31  1  0  0  0
  4 32  1  0  0  0
  5  6  1  0  0  0
  5 16  1  0  0  0
  5 33  1  0  0  0
  6  7  1  0  0  0
  6 34  1  0  0  0
  7  8  2  0  0  0
  7  9  1  0  0  0
  9 10  1  0  0  0
 10 11  1  0  0  0
 10 12  1  0  0  0
 10 35  1  0  0  0
 11 36  1  0  0  0
 11 37  1  0  0  0
 11 38  1  0  0  0
 12 13  1  0  0  0
 12 39  1  0  0  0
 12 40  1  0  0  0
 13 14  1  0  0  0
 13 15  1  0  0  0
 13 41  1  0  0  0
 14 42  1  0  0  0
 14 43  1  0  0  0
 14 44  1  0  0  0
 15 45  1  0  0  0
 15 46  1  0  0  0
 15 47  1  0  0  0
 16 17  2  0  0  0
 16 25  1  0  0  0
 17 18  1  0  0  0
 17 48  1  0  0  0
 18 19  2  0  0  0
 18 49  1  0  0  0
 19 20  1  0  0  0
 19 50  1  0  0  0
 20 21  1  0  0  0
 20 25  2  0  0  0
 21 22  1  0  0  0
 21 23  1  0  0  0
 21 24  1  0  0  0
 25 51  1  0  0  0
M  END
> <energy>
15.4292

> <i_ionizer_Ion_state_n>
0

> <i_ionizer_Tot_Q>
0

> <s_ionizer_Ion_centers>


> <s_ionizer_Ion_types>


> <s_ionizer_Ion_ctrs_in>


> <r_ionizer_Ionization_penalty>
0

> <r_ionizer_Ionization_penalty_charging>
0

> <r_ionizer_Ionization_penalty_neutral>
0

$$$$
ZINC001211859042
                    3D
 Schrodinger Suite 2019-4.
 51 51  0  0  1  0            999 V2000
    4.7591    1.8782    1.4649 C   0  0  0  0  0  0
    3.8734    2.7434    0.7680 O   0  0  0  0  0  0
    3.8038    2.4600   -0.6300 C   0  0  0  0  0  0
    2.3357    2.3927   -1.0522 C   0  0  0  0  0  0
    1.6229    1.1758   -0.4356 C   0  0  1  0  0  0
    0.1751    1.2809   -0.5602 N   0  0  0  0  0  0
   -0.6133    0.5872    0.3214 C   0  0  0  0  0  0
   -0.2466    0.1455    1.3979 O   0  0  0  0  0  0
   -1.8363    0.3849   -0.2317 O   0  0  0  0  0  0
   -2.6117   -0.6669    0.3763 C   0  0  2  0  0  0
   -2.2706   -1.9601   -0.3626 C   0  0  0  0  0  0
   -4.1076   -0.3441    0.2493 C   0  0  0  0  0  0
   -4.5298    0.9942    0.8918 C   0  0  0  0  0  0
   -6.0413    1.1942    0.7418 C   0  0  0  0  0  0
   -4.1439    1.0862    2.3702 C   0  0  0  0  0  0
    2.0548   -0.1742   -1.0082 C   0  0  0  0  0  0
    2.1850   -0.4102   -2.3845 C   0  0  0  0  0  0
    2.4708   -1.6910   -2.8659 C   0  0  0  0  0  0
    2.6105   -2.7612   -1.9846 C   0  0  0  0  0  0
    2.4716   -2.5575   -0.6062 C   0  0  0  0  0  0
    2.5792   -3.6979    0.3749 C   0  0  0  0  0  0
    1.5127   -3.7693    1.2194 F   0  0  0  0  0  0
    3.6811   -3.5961    1.1688 F   0  0  0  0  0  0
    2.6611   -4.9228   -0.2178 F   0  0  0  0  0  0
    2.2133   -1.2605   -0.1326 C   0  0  0  0  0  0
    4.3530    0.8629    1.4808 H   0  0  0  0  0  0
    5.7510    1.8864    1.0050 H   0  0  0  0  0  0
    4.8474    2.2306    2.4960 H   0  0  0  0  0  0
    4.3362    1.5380   -0.8887 H   0  0  0  0  0  0
    4.2998    3.2869   -1.1506 H   0  0  0  0  0  0
    1.8376    3.3079   -0.7058 H   0  0  0  0  0  0
    2.2653    2.3938   -2.1446 H   0  0  0  0  0  0
    1.8439    1.1861    0.6387 H   0  0  0  0  0  0
   -0.2274    1.3563   -1.4816 H   0  0  0  0  0  0
   -2.3694   -0.7963    1.4377 H   0  0  0  0  0  0
   -2.4622   -1.8580   -1.4370 H   0  0  0  0  0  0
   -2.8432   -2.8106    0.0170 H   0  0  0  0  0  0
   -1.2043   -2.1937   -0.2600 H   0  0  0  0  0  0
   -4.6920   -1.1599    0.6950 H   0  0  0  0  0  0
   -4.3764   -0.3106   -0.8143 H   0  0  0  0  0  0
   -4.0321    1.8131    0.3570 H   0  0  0  0  0  0
   -6.5990    0.4080    1.2615 H   0  0  0  0  0  0
   -6.3376    1.1837   -0.3121 H   0  0  0  0  0  0
   -6.3506    2.1548    1.1644 H   0  0  0  0  0  0
   -4.5469    1.9992    2.8207 H   0  0  0  0  0  0
   -3.0579    1.1148    2.4966 H   0  0  0  0  0  0
   -4.5337    0.2315    2.9328 H   0  0  0  0  0  0
    2.0359    0.3882   -3.1072 H   0  0  0  0  0  0
    2.5608   -1.8592   -3.9364 H   0  0  0  0  0  0
    2.8052   -3.7579   -2.3779 H   0  0  0  0  0  0
    2.0876   -1.1076    0.9404 H   0  0  0  0  0  0
  1  2  1  0  0  0
  1 26  1  0  0  0
  1 27  1  0  0  0
  1 28  1  0  0  0
  2  3  1  0  0  0
  3  4  1  0  0  0
  3 29  1  0  0  0
  3 30  1  0  0  0
  4  5  1  0  0  0
  4 31  1  0  0  0
  4 32  1  0  0  0
  5  6  1  0  0  0
  5 16  1  0  0  0
  5 33  1  0  0  0
  6  7  1  0  0  0
  6 34  1  0  0  0
  7  8  2  0  0  0
  7  9  1  0  0  0
  9 10  1  0  0  0
 10 11  1  0  0  0
 10 12  1  0  0  0
 10 35  1  0  0  0
 11 36  1  0  0  0
 11 37  1  0  0  0
 11 38  1  0  0  0
 12 13  1  0  0  0
 12 39  1  0  0  0
 12 40  1  0  0  0
 13 14  1  0  0  0
 13 15  1  0  0  0
 13 41  1  0  0  0
 14 42  1  0  0  0
 14 43  1  0  0  0
 14 44  1  0  0  0
 15 45  1  0  0  0
 15 46  1  0  0  0
 15 47  1  0  0  0
 16 17  2  0  0  0
 16 25  1  0  0  0
 17 18  1  0  0  0
 17 48  1  0  0  0
 18 19  2  0  0  0
 18 49  1  0  0  0
 19 20  1  0  0  0
 19 50  1  0  0  0
 20 21  1  0  0  0
 20 25  2  0  0  0
 21 22  1  0  0  0
 21 23  1  0  0  0
 21 24  1  0  0  0
 25 51  1  0  0  0
M  END
> <energy>
-7.60272

> <i_ionizer_Ion_state_n>
0

> <i_ionizer_Tot_Q>
0

> <s_ionizer_Ion_centers>


> <s_ionizer_Ion_types>


> <s_ionizer_Ion_ctrs_in>


> <r_ionizer_Ionization_penalty>
0

> <r_ionizer_Ionization_penalty_charging>
0

> <r_ionizer_Ionization_penalty_neutral>
0

$$$$
ZINC001211859043
                    3D
 Schrodinger Suite 2019-4.
 51 51  0  0  1  0            999 V2000
   -3.9764   -0.9434   -2.4946 C   0  0  0  0  0  0
   -3.0318   -0.0257   -3.0305 O   0  0  0  0  0  0
   -2.1514    0.4836   -2.0239 C   0  0  0  0  0  0
   -1.1919    1.4536   -2.6986 C   0  0  0  0  0  0
   -0.0340    1.9657   -1.8189 C   0  0  1  0  0  0
   -0.5173    2.5628   -0.5715 N   0  0  0  0  0  0
   -0.7582    1.9651    0.6322 C   0  0  0  0  0  0
   -1.4042    2.5409    1.4978 O   0  0  0  0  0  0
   -0.1787    0.7533    0.7515 O   0  0  0  0  0  0
   -0.0209    0.1198    2.0423 C   0  0  1  0  0  0
    0.5024    1.0638    3.1271 C   0  0  0  0  0  0
   -1.3002   -0.6179    2.4660 C   0  0  0  0  0  0
   -1.3028   -2.1374    2.1808 C   0  0  0  0  0  0
   -1.1698   -2.4517    0.6929 C   0  0  0  0  0  0
   -0.2265   -2.8737    2.9830 C   0  0  0  0  0  0
    1.1875    1.0634   -1.6534 C   0  0  0  0  0  0
    1.2378   -0.2604   -2.1135 C   0  0  0  0  0  0
    2.3674   -1.0547   -1.9046 C   0  0  0  0  0  0
    3.4776   -0.5352   -1.2458 C   0  0  0  0  0  0
    3.4715    0.7871   -0.7884 C   0  0  0  0  0  0
    4.6716    1.3355   -0.0584 C   0  0  0  0  0  0
    4.8819    0.7075    1.1311 F   0  0  0  0  0  0
    4.5736    2.6640    0.2326 F   0  0  0  0  0  0
    5.8272    1.1941   -0.7653 F   0  0  0  0  0  0
    2.3265    1.5736   -1.0001 C   0  0  0  0  0  0
   -3.4642   -1.8081   -2.0660 H   0  0  0  0  0  0
   -4.6191   -1.2888   -3.3103 H   0  0  0  0  0  0
   -4.5987   -0.4556   -1.7393 H   0  0  0  0  0  0
   -1.6167   -0.3501   -1.5622 H   0  0  0  0  0  0
   -2.7456    0.9985   -1.2592 H   0  0  0  0  0  0
   -1.7882    2.3135   -3.0338 H   0  0  0  0  0  0
   -0.8002    1.0142   -3.6254 H   0  0  0  0  0  0
    0.3587    2.8279   -2.3808 H   0  0  0  0  0  0
   -0.9450    3.4775   -0.6318 H   0  0  0  0  0  0
    0.7874   -0.5984    1.8762 H   0  0  0  0  0  0
   -0.2652    1.7602    3.4776 H   0  0  0  0  0  0
    1.3392    1.6611    2.7518 H   0  0  0  0  0  0
    0.8469    0.4968    4.0003 H   0  0  0  0  0  0
   -2.1689   -0.1737    1.9644 H   0  0  0  0  0  0
   -1.4656   -0.4907    3.5446 H   0  0  0  0  0  0
   -2.2745   -2.5254    2.5139 H   0  0  0  0  0  0
   -1.2439   -3.5295    0.5149 H   0  0  0  0  0  0
   -0.2099   -2.1155    0.2891 H   0  0  0  0  0  0
   -1.9699   -1.9673    0.1259 H   0  0  0  0  0  0
   -0.3549   -3.9582    2.8982 H   0  0  0  0  0  0
   -0.2810   -2.6126    4.0447 H   0  0  0  0  0  0
    0.7826   -2.6419    2.6287 H   0  0  0  0  0  0
    0.3979   -0.7137   -2.6331 H   0  0  0  0  0  0
    2.3803   -2.0819   -2.2545 H   0  0  0  0  0  0
    4.3488   -1.1698   -1.0781 H   0  0  0  0  0  0
    2.3090    2.5976   -0.6256 H   0  0  0  0  0  0
  1  2  1  0  0  0
  1 26  1  0  0  0
  1 27  1  0  0  0
  1 28  1  0  0  0
  2  3  1  0  0  0
  3  4  1  0  0  0
  3 29  1  0  0  0
  3 30  1  0  0  0
  4  5  1  0  0  0
  4 31  1  0  0  0
  4 32  1  0  0  0
  5  6  1  0  0  0
  5 16  1  0  0  0
  5 33  1  0  0  0
  6  7  1  0  0  0
  6 34  1  0  0  0
  7  8  2  0  0  0
  7  9  1  0  0  0
  9 10  1  0  0  0
 10 11  1  0  0  0
 10 12  1  0  0  0
 10 35  1  0  0  0
 11 36  1  0  0  0
 11 37  1  0  0  0
 11 38  1  0  0  0
 12 13  1  0  0  0
 12 39  1  0  0  0
 12 40  1  0  0  0
 13 14  1  0  0  0
 13 15  1  0  0  0
 13 41  1  0  0  0
 14 42  1  0  0  0
 14 43  1  0  0  0
 14 44  1  0  0  0
 15 45  1  0  0  0
 15 46  1  0  0  0
 15 47  1  0  0  0
 16 17  2  0  0  0
 16 25  1  0  0  0
 17 18  1  0  0  0
 17 48  1  0  0  0
 18 19  2  0  0  0
 18 49  1  0  0  0
 19 20  1  0  0  0
 19 50  1  0  0  0
 20 21  1  0  0  0
 20 25  2  0  0  0
 21 22  1  0  0  0
 21 23  1  0  0  0
 21 24  1  0  0  0
 25 51  1  0  0  0
M  END
> <energy>
4.5099

> <i_ionizer_Ion_state_n>
0

> <i_ionizer_Tot_Q>
0

> <s_ionizer_Ion_centers>


> <s_ionizer_Ion_types>


> <s_ionizer_Ion_ctrs_in>


> <r_ionizer_Ionization_penalty>
0

> <r_ionizer_Ionization_penalty_charging>
0

> <r_ionizer_Ionization_penalty_neutral>
0

$$$$
ZINC001211859468
                    3D
 Schrodinger Suite 2019-4.
 51 53  0  0  1  0            999 V2000
   -2.2249    0.8358    0.2004 C   0  0  0  0  0  0
   -2.8450    2.1011    0.5657 N   0  0  0  0  0  0
   -3.9487    2.0334    1.5075 C   0  0  0  0  0  0
   -2.3160    3.3510    0.2425 C   0  0  0  0  0  0
   -2.7876    4.4226    0.6129 O   0  0  0  0  0  0
   -1.0446    3.4011   -0.4932 C   0  0  0  0  0  0
    0.1394    3.3272    0.2428 C   0  0  0  0  0  0
    1.3786    3.2962   -0.4087 C   0  0  0  0  0  0
    2.5638    2.9809    0.3262 N   0  0  0  0  0  0
    2.7288    1.6266    0.7533 C   0  0  0  0  0  0
    3.4011    0.7136   -0.0727 C   0  0  0  0  0  0
    3.2465   -0.6547    0.1396 C   0  0  0  0  0  0
    2.4119   -1.1014    1.1601 C   0  0  0  0  0  0
    2.0657   -2.4272    1.2255 O   0  0  0  0  0  0
    0.9222   -2.6679    0.3851 C   0  0  0  0  0  0
    1.3117   -3.6179   -0.7428 C   0  0  0  0  0  0
    0.1648   -3.7979   -1.7347 C   0  0  0  0  0  0
   -1.2222   -3.6206   -1.1013 C   0  0  0  0  0  0
   -1.2540   -4.0096    0.3747 C   0  0  0  0  0  0
   -0.1952   -3.2974    1.2234 C   0  0  0  0  0  0
    1.8578   -0.2112    2.0719 C   0  0  0  0  0  0
    2.0135    1.1566    1.8639 C   0  0  0  0  0  0
    1.4068    3.3799   -1.8099 C   0  0  0  0  0  0
    0.2189    3.4964   -2.5418 C   0  0  0  0  0  0
   -1.0108    3.5010   -1.8791 C   0  0  0  0  0  0
   -2.1369    3.5668   -2.5990 F   0  0  0  0  0  0
   -1.6579    0.9208   -0.7273 H   0  0  0  0  0  0
   -3.0035    0.0783    0.0531 H   0  0  0  0  0  0
   -1.5604    0.5129    1.0083 H   0  0  0  0  0  0
   -4.4157    3.0090    1.6532 H   0  0  0  0  0  0
   -3.5761    1.6751    2.4734 H   0  0  0  0  0  0
   -4.7021    1.3344    1.1340 H   0  0  0  0  0  0
    0.0846    3.2647    1.3296 H   0  0  0  0  0  0
    3.3737    3.2470   -0.2336 H   0  0  0  0  0  0
    3.9834    1.0515   -0.9266 H   0  0  0  0  0  0
    3.7132   -1.3688   -0.5311 H   0  0  0  0  0  0
    0.5316   -1.7339   -0.0523 H   0  0  0  0  0  0
    1.5781   -4.5911   -0.3103 H   0  0  0  0  0  0
    2.2176   -3.2806   -1.2543 H   0  0  0  0  0  0
    0.2447   -4.7893   -2.1998 H   0  0  0  0  0  0
    0.2654   -3.0728   -2.5538 H   0  0  0  0  0  0
   -1.9533   -4.2161   -1.6622 H   0  0  0  0  0  0
   -1.5403   -2.5750   -1.2000 H   0  0  0  0  0  0
   -1.1158   -5.0956    0.4603 H   0  0  0  0  0  0
   -2.2505   -3.8020    0.7815 H   0  0  0  0  0  0
    0.2299   -4.0036    1.9485 H   0  0  0  0  0  0
   -0.6650   -2.5160    1.8369 H   0  0  0  0  0  0
    1.2563   -0.5672    2.9003 H   0  0  0  0  0  0
    1.5293    1.8635    2.5334 H   0  0  0  0  0  0
    2.3495    3.3305   -2.3455 H   0  0  0  0  0  0
    0.2374    3.5399   -3.6281 H   0  0  0  0  0  0
  1  2  1  0  0  0
  1 27  1  0  0  0
  1 28  1  0  0  0
  1 29  1  0  0  0
  2  3  1  0  0  0
  2  4  1  0  0  0
  3 30  1  0  0  0
  3 31  1  0  0  0
  3 32  1  0  0  0
  4  5  2  0  0  0
  4  6  1  0  0  0
  6  7  2  0  0  0
  6 25  1  0  0  0
  7  8  1  0  0  0
  7 33  1  0  0  0
  8  9  1  0  0  0
  8 23  2  0  0  0
  9 10  1  0  0  0
  9 34  1  0  0  0
 10 11  2  0  0  0
 10 22  1  0  0  0
 11 12  1  0  0  0
 11 35  1  0  0  0
 12 13  2  0  0  0
 12 36  1  0  0  0
 13 14  1  0  0  0
 13 21  1  0  0  0
 14 15  1  0  0  0
 15 16  1  0  0  0
 15 20  1  0  0  0
 15 37  1  0  0  0
 16 17  1  0  0  0
 16 38  1  0  0  0
 16 39  1  0  0  0
 17 18  1  0  0  0
 17 40  1  0  0  0
 17 41  1  0  0  0
 18 19  1  0  0  0
 18 42  1  0  0  0
 18 43  1  0  0  0
 19 20  1  0  0  0
 19 44  1  0  0  0
 19 45  1  0  0  0
 20 46  1  0  0  0
 20 47  1  0  0  0
 21 22  2  0  0  0
 21 48  1  0  0  0
 22 49  1  0  0  0
 23 24  1  0  0  0
 23 50  1  0  0  0
 24 25  2  0  0  0
 24 51  1  0  0  0
 25 26  1  0  0  0
M  END
> <energy>
50.1555

> <i_ionizer_Ion_state_n>
0

> <i_ionizer_Tot_Q>
0

> <s_ionizer_Ion_centers>


> <s_ionizer_Ion_types>


> <s_ionizer_Ion_ctrs_in>


> <r_ionizer_Ionization_penalty>
0

> <r_ionizer_Ionization_penalty_charging>
0

> <r_ionizer_Ionization_penalty_neutral>
0

$$$$
ZINC001211859743
                    3D
 Schrodinger Suite 2019-4.
 48 51  0  0  1  0            999 V2000
    3.0555   -2.6621    0.0405 C   0  0  0  0  0  0
    3.5387   -1.8272   -1.0515 N   0  0  0  0  0  0
    4.2416   -2.5086   -2.1242 C   0  0  0  0  0  0
    3.1617   -0.5041   -1.2475 C   0  0  0  0  0  0
    3.4130    0.1420   -2.2625 O   0  0  0  0  0  0
    2.3583    0.1739   -0.2219 C   0  0  0  0  0  0
    0.9945    0.3543   -0.4556 C   0  0  0  0  0  0
    0.2504    1.1302    0.4392 C   0  0  0  0  0  0
   -1.1264    1.3545    0.1708 N   0  0  0  0  0  0
   -1.7139    2.6111    0.0632 C   0  0  0  0  0  0
   -1.1763    3.9067    0.1987 C   0  0  0  0  0  0
   -2.0108    5.0021   -0.0329 C   0  0  0  0  0  0
   -3.3389    4.8210   -0.3986 C   0  0  0  0  0  0
   -3.8644    3.5361   -0.5491 C   0  0  0  0  0  0
   -3.0398    2.4152   -0.3268 C   0  0  0  0  0  0
   -3.2515    1.0160   -0.4299 C   0  0  0  0  0  0
   -2.0761    0.3690   -0.0944 C   0  0  0  0  0  0
   -1.8428   -1.0793    0.0318 C   0  0  0  0  0  0
   -1.8675   -1.8616   -1.1344 C   0  0  0  0  0  0
   -1.6383   -3.2368   -1.0765 C   0  0  0  0  0  0
   -1.3985   -3.8460    0.1493 C   0  0  0  0  0  0
   -1.3954   -3.0847    1.3184 C   0  0  0  0  0  0
   -1.5818   -1.6952    1.2797 C   0  0  0  0  0  0
   -1.7288   -1.0063    2.4985 N   0  0  0  0  0  0
    0.8547    1.7094    1.5640 C   0  0  0  0  0  0
    2.2154    1.4931    1.7999 C   0  0  0  0  0  0
    2.9672    0.7326    0.9013 C   0  0  0  0  0  0
    4.2730    0.5577    1.1409 F   0  0  0  0  0  0
    2.1708   -3.2086   -0.2981 H   0  0  0  0  0  0
    3.8374   -3.3715    0.3230 H   0  0  0  0  0  0
    2.7851   -2.0784    0.9227 H   0  0  0  0  0  0
    3.5560   -3.2075   -2.6115 H   0  0  0  0  0  0
    5.0837   -3.0619   -1.6994 H   0  0  0  0  0  0
    4.6242   -1.8144   -2.8781 H   0  0  0  0  0  0
    0.5494   -0.0523   -1.3625 H   0  0  0  0  0  0
   -0.1315    4.0685    0.4477 H   0  0  0  0  0  0
   -1.6095    6.0104    0.0587 H   0  0  0  0  0  0
   -3.9717    5.6848   -0.5818 H   0  0  0  0  0  0
   -4.8962    3.4012   -0.8576 H   0  0  0  0  0  0
   -4.1813    0.5323   -0.6975 H   0  0  0  0  0  0
   -2.0616   -1.3980   -2.0981 H   0  0  0  0  0  0
   -1.6690   -3.8319   -1.9850 H   0  0  0  0  0  0
   -1.2422   -4.9198    0.2014 H   0  0  0  0  0  0
   -1.2537   -3.5837    2.2743 H   0  0  0  0  0  0
   -1.6030   -0.0025    2.4331 H   0  0  0  0  0  0
   -1.2409   -1.4194    3.2834 H   0  0  0  0  0  0
    0.2793    2.3123    2.2643 H   0  0  0  0  0  0
    2.7018    1.9273    2.6706 H   0  0  0  0  0  0
  1  2  1  0  0  0
  1 29  1  0  0  0
  1 30  1  0  0  0
  1 31  1  0  0  0
  2  3  1  0  0  0
  2  4  1  0  0  0
  3 32  1  0  0  0
  3 33  1  0  0  0
  3 34  1  0  0  0
  4  5  2  0  0  0
  4  6  1  0  0  0
  6  7  2  0  0  0
  6 27  1  0  0  0
  7  8  1  0  0  0
  7 35  1  0  0  0
  8  9  1  0  0  0
  8 25  2  0  0  0
  9 10  1  0  0  0
  9 17  1  0  0  0
 10 11  2  0  0  0
 10 15  1  0  0  0
 11 12  1  0  0  0
 11 36  1  0  0  0
 12 13  2  0  0  0
 12 37  1  0  0  0
 13 14  1  0  0  0
 13 38  1  0  0  0
 14 15  2  0  0  0
 14 39  1  0  0  0
 15 16  1  0  0  0
 16 17  2  0  0  0
 16 40  1  0  0  0
 17 18  1  0  0  0
 18 19  2  0  0  0
 18 23  1  0  0  0
 19 20  1  0  0  0
 19 41  1  0  0  0
 20 21  2  0  0  0
 20 42  1  0  0  0
 21 22  1  0  0  0
 21 43  1  0  0  0
 22 23  2  0  0  0
 22 44  1  0  0  0
 23 24  1  0  0  0
 24 45  1  0  0  0
 24 46  1  0  0  0
 25 26  1  0  0  0
 25 47  1  0  0  0
 26 27  2  0  0  0
 26 48  1  0  0  0
 27 28  1  0  0  0
M  END
> <energy>
91.756

> <i_ionizer_Ion_state_n>
0

> <i_ionizer_Tot_Q>
0

> <s_ionizer_Ion_centers>


> <s_ionizer_Ion_types>


> <s_ionizer_Ion_ctrs_in>


> <r_ionizer_Ionization_penalty>
0.000745426

> <r_ionizer_Ionization_penalty_charging>
0

> <r_ionizer_Ionization_penalty_neutral>
0.000745426

$$$$
ZINC001211859791
                    3D
 Schrodinger Suite 2019-4.
 47 49  0  0  1  0            999 V2000
    3.8724    2.1958   -0.4849 C   0  0  0  0  0  0
    3.9305    0.9913    0.4055 C   0  0  0  0  0  0
    3.6572   -0.2690   -0.1114 C   0  0  0  0  0  0
    3.6488   -1.3581    0.7584 C   0  0  0  0  0  0
    3.3481   -2.6313    0.3217 O   0  0  0  0  0  0
    2.0341   -2.7749   -0.0707 C   0  0  0  0  0  0
    1.7056   -2.6467   -1.4197 C   0  0  0  0  0  0
    0.3641   -2.6435   -1.7969 C   0  0  0  0  0  0
   -0.6474   -2.8412   -0.8443 C   0  0  0  0  0  0
   -2.0008   -2.6163   -1.2167 N   0  0  0  0  0  0
   -2.4884   -1.3021   -1.4505 C   0  0  0  0  0  0
   -3.5846   -1.1099   -2.3040 C   0  0  0  0  0  0
   -4.0611    0.1809   -2.5651 C   0  0  0  0  0  0
   -3.4814    1.2791   -1.9353 C   0  0  0  0  0  0
   -3.9503    2.5056   -2.1945 F   0  0  0  0  0  0
   -2.4417    1.0863   -1.0350 C   0  0  0  0  0  0
   -1.8256    2.2152   -0.3286 C   0  0  0  0  0  0
   -0.9513    2.8405   -0.9206 O   0  0  0  0  0  0
   -2.2094    2.4479    0.9909 N   0  0  0  0  0  0
   -1.5126    3.4713    1.7509 C   0  0  0  0  0  0
   -3.3465    1.8271    1.6530 C   0  0  0  0  0  0
   -1.9398   -0.1929   -0.7941 C   0  0  0  0  0  0
   -0.2991   -3.0673    0.4957 C   0  0  0  0  0  0
    1.0453   -3.0335    0.8806 C   0  0  0  0  0  0
    3.9683   -1.1816    2.0973 C   0  0  0  0  0  0
    4.2454    0.1051    2.5209 C   0  0  0  0  0  0
    4.2280    1.1876    1.7114 N   0  0  0  0  0  0
    4.1248    3.1042    0.0679 H   0  0  0  0  0  0
    4.5758    2.0971   -1.3158 H   0  0  0  0  0  0
    2.8638    2.3159   -0.8893 H   0  0  0  0  0  0
    3.4392   -0.3917   -1.1642 H   0  0  0  0  0  0
    2.4799   -2.4924   -2.1619 H   0  0  0  0  0  0
    0.0974   -2.4498   -2.8346 H   0  0  0  0  0  0
   -2.6269   -3.0850   -0.5651 H   0  0  0  0  0  0
   -4.0369   -1.9609   -2.8074 H   0  0  0  0  0  0
   -4.8788    0.3370   -3.2642 H   0  0  0  0  0  0
   -1.2769    3.0702    2.7412 H   0  0  0  0  0  0
   -2.1778    4.3323    1.8601 H   0  0  0  0  0  0
   -0.5876    3.7926    1.2650 H   0  0  0  0  0  0
   -2.9769    1.2160    2.4814 H   0  0  0  0  0  0
   -3.9423    1.2007    0.9917 H   0  0  0  0  0  0
   -3.9928    2.6170    2.0497 H   0  0  0  0  0  0
   -1.1109   -0.3020   -0.0990 H   0  0  0  0  0  0
   -1.0654   -3.1996    1.2556 H   0  0  0  0  0  0
    1.3160   -3.1666    1.9242 H   0  0  0  0  0  0
    3.9805   -2.0130    2.7912 H   0  0  0  0  0  0
    4.4879    0.3124    3.5595 H   0  0  0  0  0  0
  1  2  1  0  0  0
  1 28  1  0  0  0
  1 29  1  0  0  0
  1 30  1  0  0  0
  2  3  2  0  0  0
  2 27  1  0  0  0
  3  4  1  0  0  0
  3 31  1  0  0  0
  4  5  1  0  0  0
  4 25  2  0  0  0
  5  6  1  0  0  0
  6  7  2  0  0  0
  6 24  1  0  0  0
  7  8  1  0  0  0
  7 32  1  0  0  0
  8  9  2  0  0  0
  8 33  1  0  0  0
  9 10  1  0  0  0
  9 23  1  0  0  0
 10 11  1  0  0  0
 10 34  1  0  0  0
 11 12  2  0  0  0
 11 22  1  0  0  0
 12 13  1  0  0  0
 12 35  1  0  0  0
 13 14  2  0  0  0
 13 36  1  0  0  0
 14 15  1  0  0  0
 14 16  1  0  0  0
 16 17  1  0  0  0
 16 22  2  0  0  0
 17 18  2  0  0  0
 17 19  1  0  0  0
 19 20  1  0  0  0
 19 21  1  0  0  0
 20 37  1  0  0  0
 20 38  1  0  0  0
 20 39  1  0  0  0
 21 40  1  0  0  0
 21 41  1  0  0  0
 21 42  1  0  0  0
 22 43  1  0  0  0
 23 24  2  0  0  0
 23 44  1  0  0  0
 24 45  1  0  0  0
 25 26  1  0  0  0
 25 46  1  0  0  0
 26 27  2  0  0  0
 26 47  1  0  0  0
M  END
> <energy>
48.7114

> <i_ionizer_Ion_state_n>
0

> <i_ionizer_Tot_Q>
0

> <s_ionizer_Ion_centers>


> <s_ionizer_Ion_types>


> <s_ionizer_Ion_ctrs_in>


> <r_ionizer_Ionization_penalty>
0.00741239

> <r_ionizer_Ionization_penalty_charging>
0

> <r_ionizer_Ionization_penalty_neutral>
0.00741239

$$$$
ZINC001211859950
                    3D
 Schrodinger Suite 2019-4.
 52 54  0  0  1  0            999 V2000
   -0.8885    2.5087    2.4974 C   0  0  0  0  0  0
   -1.5868    1.6053    1.5197 C   0  0  0  0  0  0
   -1.9991    0.3254    1.9484 C   0  0  0  0  0  0
   -2.4456   -0.6577    1.0505 C   0  0  0  0  0  0
   -2.4656   -2.0018    1.4934 N   0  0  0  0  0  0
   -3.6114   -2.8270    1.0938 C   0  0  0  0  0  0
   -3.5924   -4.1376    1.9047 C   0  0  0  0  0  0
   -2.1865   -4.6931    2.1382 C   0  0  0  0  0  0
   -1.1860   -4.1322    1.1464 C   0  0  0  0  0  0
   -1.1415   -2.6006    1.1828 C   0  0  0  0  0  0
   -2.6255   -0.2994   -0.2832 C   0  0  0  0  0  0
   -2.2749    0.9806   -0.7186 C   0  0  0  0  0  0
   -1.7194    1.9283    0.1589 C   0  0  0  0  0  0
   -1.1170    3.0737   -0.4380 N   0  0  0  0  0  0
    0.0036    2.9340   -1.3050 C   0  0  0  0  0  0
    0.2086    3.8266   -2.3637 C   0  0  0  0  0  0
    1.2840    3.6354   -3.2478 C   0  0  0  0  0  0
    2.1812    2.5832   -3.0503 C   0  0  0  0  0  0
    3.1852    2.4185   -3.9211 F   0  0  0  0  0  0
    2.0346    1.7387   -1.9584 C   0  0  0  0  0  0
    2.9215    0.5785   -1.7018 C   0  0  0  0  0  0
    2.3793   -0.5165   -1.5992 O   0  0  0  0  0  0
    4.2985    0.7595   -1.5223 N   0  0  0  0  0  0
    4.9464    2.0437   -1.3144 C   0  0  0  0  0  0
    5.0691   -0.4018   -1.1011 C   0  0  0  0  0  0
    0.9395    1.9071   -1.1025 C   0  0  0  0  0  0
   -0.9042    2.0852    3.5062 H   0  0  0  0  0  0
   -1.3918    3.4776    2.5308 H   0  0  0  0  0  0
    0.1675    2.6483    2.2328 H   0  0  0  0  0  0
   -1.9038    0.0493    2.9970 H   0  0  0  0  0  0
   -4.5616   -2.3063    1.2831 H   0  0  0  0  0  0
   -3.5749   -3.0674    0.0232 H   0  0  0  0  0  0
   -4.1975   -4.8868    1.3759 H   0  0  0  0  0  0
   -4.0738   -3.9930    2.8808 H   0  0  0  0  0  0
   -2.1973   -5.7854    2.0920 H   0  0  0  0  0  0
   -1.8652   -4.4329    3.1526 H   0  0  0  0  0  0
   -0.1867   -4.5394    1.3406 H   0  0  0  0  0  0
   -1.4605   -4.4618    0.1369 H   0  0  0  0  0  0
   -0.7501   -2.2721    0.2073 H   0  0  0  0  0  0
   -0.4147   -2.2703    1.9397 H   0  0  0  0  0  0
   -2.9276   -1.0293   -1.0263 H   0  0  0  0  0  0
   -2.3276    1.2090   -1.7816 H   0  0  0  0  0  0
   -0.9656    3.8253    0.2266 H   0  0  0  0  0  0
   -0.4968    4.6363   -2.5415 H   0  0  0  0  0  0
    1.4172    4.2987   -4.0956 H   0  0  0  0  0  0
    5.0804    2.1962   -0.2396 H   0  0  0  0  0  0
    4.3810    2.8805   -1.7117 H   0  0  0  0  0  0
    5.9272    2.0252   -1.7989 H   0  0  0  0  0  0
    4.6444   -1.3322   -1.4937 H   0  0  0  0  0  0
    5.0610   -0.4433   -0.0048 H   0  0  0  0  0  0
    6.0993   -0.3008   -1.4607 H   0  0  0  0  0  0
    0.8105    1.2097   -0.2779 H   0  0  0  0  0  0
  1  2  1  0  0  0
  1 27  1  0  0  0
  1 28  1  0  0  0
  1 29  1  0  0  0
  2  3  2  0  0  0
  2 13  1  0  0  0
  3  4  1  0  0  0
  3 30  1  0  0  0
  4  5  1  0  0  0
  4 11  2  0  0  0
  5  6  1  0  0  0
  5 10  1  0  0  0
  6  7  1  0  0  0
  6 31  1  0  0  0
  6 32  1  0  0  0
  7  8  1  0  0  0
  7 33  1  0  0  0
  7 34  1  0  0  0
  8  9  1  0  0  0
  8 35  1  0  0  0
  8 36  1  0  0  0
  9 10  1  0  0  0
  9 37  1  0  0  0
  9 38  1  0  0  0
 10 39  1  0  0  0
 10 40  1  0  0  0
 11 12  1  0  0  0
 11 41  1  0  0  0
 12 13  2  0  0  0
 12 42  1  0  0  0
 13 14  1  0  0  0
 14 15  1  0  0  0
 14 43  1  0  0  0
 15 16  2  0  0  0
 15 26  1  0  0  0
 16 17  1  0  0  0
 16 44  1  0  0  0
 17 18  2  0  0  0
 17 45  1  0  0  0
 18 19  1  0  0  0
 18 20  1  0  0  0
 20 21  1  0  0  0
 20 26  2  0  0  0
 21 22  2  0  0  0
 21 23  1  0  0  0
 23 24  1  0  0  0
 23 25  1  0  0  0
 24 46  1  0  0  0
 24 47  1  0  0  0
 24 48  1  0  0  0
 25 49  1  0  0  0
 25 50  1  0  0  0
 25 51  1  0  0  0
 26 52  1  0  0  0
M  END
> <energy>
46.2357

> <i_ionizer_Ion_state_n>
0

> <i_ionizer_Tot_Q>
0

> <s_ionizer_Ion_centers>


> <s_ionizer_Ion_types>


> <s_ionizer_Ion_ctrs_in>


> <r_ionizer_Ionization_penalty>
0.00296205

> <r_ionizer_Ionization_penalty_charging>
0

> <r_ionizer_Ionization_penalty_neutral>
0.00296205

$$$$
ZINC001211859957
                    3D
 Schrodinger Suite 2019-4.
 38 39  0  0  1  0            999 V2000
   -3.2604   -0.8622    2.0792 C   0  0  0  0  0  0
   -3.8844   -0.1242    1.0274 O   0  0  0  0  0  0
   -3.3384   -0.4359   -0.1941 C   0  0  0  0  0  0
   -3.8711   -1.4729   -0.9721 C   0  0  0  0  0  0
   -5.1873   -2.4381   -0.4099 Cl  0  0  0  0  0  0
   -3.3570   -1.7360   -2.2414 C   0  0  0  0  0  0
   -2.3307   -0.9397   -2.7413 C   0  0  0  0  0  0
   -1.7525   -1.2067   -4.3405 Cl  0  0  0  0  0  0
   -1.7838    0.0894   -1.9743 C   0  0  0  0  0  0
   -2.2713    0.3427   -0.6831 C   0  0  0  0  0  0
   -1.7981    1.4627    0.0466 N   0  0  0  0  0  0
   -0.4333    1.7396    0.2755 C   0  0  0  0  0  0
    0.0596    3.0431    0.1682 C   0  0  0  0  0  0
    1.4110    3.3070    0.4199 C   0  0  0  0  0  0
    2.2723    2.2735    0.7818 C   0  0  0  0  0  0
    3.5612    2.5541    1.0097 F   0  0  0  0  0  0
    1.7903    0.9770    0.8972 C   0  0  0  0  0  0
    2.6335   -0.1223    1.3894 C   0  0  0  0  0  0
    2.4980   -0.4362    2.5710 O   0  0  0  0  0  0
    3.4508   -0.8012    0.4872 N   0  0  0  0  0  0
    3.9851   -2.0935    0.8842 C   0  0  0  0  0  0
    3.4866   -0.4923   -0.9312 C   0  0  0  0  0  0
    0.4389    0.7115    0.6571 C   0  0  0  0  0  0
   -2.2016   -1.0752    1.8953 H   0  0  0  0  0  0
   -3.3283   -0.2682    2.9964 H   0  0  0  0  0  0
   -3.8018   -1.7991    2.2417 H   0  0  0  0  0  0
   -3.7694   -2.5356   -2.8515 H   0  0  0  0  0  0
   -0.9880    0.7077   -2.3851 H   0  0  0  0  0  0
   -2.3438    2.2873   -0.1938 H   0  0  0  0  0  0
   -0.5972    3.8596   -0.1141 H   0  0  0  0  0  0
    1.7963    4.3196    0.3440 H   0  0  0  0  0  0
    5.0017   -2.2052    0.4964 H   0  0  0  0  0  0
    4.0135   -2.2082    1.9709 H   0  0  0  0  0  0
    3.3457   -2.8740    0.4576 H   0  0  0  0  0  0
    3.6420    0.5772   -1.0782 H   0  0  0  0  0  0
    4.3083   -1.0293   -1.4084 H   0  0  0  0  0  0
    2.5395   -0.7958   -1.3826 H   0  0  0  0  0  0
    0.0640   -0.2999    0.8049 H   0  0  0  0  0  0
  1  2  1  0  0  0
  1 24  1  0  0  0
  1 25  1  0  0  0
  1 26  1  0  0  0
  2  3  1  0  0  0
  3  4  2  0  0  0
  3 10  1  0  0  0
  4  5  1  0  0  0
  4  6  1  0  0  0
  6  7  2  0  0  0
  6 27  1  0  0  0
  7  8  1  0  0  0
  7  9  1  0  0  0
  9 10  2  0  0  0
  9 28  1  0  0  0
 10 11  1  0  0  0
 11 12  1  0  0  0
 11 29  1  0  0  0
 12 13  2  0  0  0
 12 23  1  0  0  0
 13 14  1  0  0  0
 13 30  1  0  0  0
 14 15  2  0  0  0
 14 31  1  0  0  0
 15 16  1  0  0  0
 15 17  1  0  0  0
 17 18  1  0  0  0
 17 23  2  0  0  0
 18 19  2  0  0  0
 18 20  1  0  0  0
 20 21  1  0  0  0
 20 22  1  0  0  0
 21 32  1  0  0  0
 21 33  1  0  0  0
 21 34  1  0  0  0
 22 35  1  0  0  0
 22 36  1  0  0  0
 22 37  1  0  0  0
 23 38  1  0  0  0
M  END
> <energy>
49.9779

> <i_ionizer_Ion_state_n>
0

> <i_ionizer_Tot_Q>
0

> <s_ionizer_Ion_centers>


> <s_ionizer_Ion_types>


> <s_ionizer_Ion_ctrs_in>


> <r_ionizer_Ionization_penalty>
0

> <r_ionizer_Ionization_penalty_charging>
0

> <r_ionizer_Ionization_penalty_neutral>
0

$$$$
ZINC001211860026
                    3D
 Schrodinger Suite 2019-4.
 40 41  0  0  1  0            999 V2000
    4.3586    1.3945   -1.6555 C   0  0  0  0  0  0
    3.2488    2.2565   -1.0753 C   0  0  0  0  0  0
    2.8582    1.8096    0.3093 C   0  0  0  0  0  0
    3.4151    2.4327    1.4315 C   0  0  0  0  0  0
    3.0560    2.0141    2.7085 C   0  0  0  0  0  0
    3.8012    2.8730    4.2191 Br  0  0  0  0  0  0
    2.1364    0.9814    2.8838 C   0  0  0  0  0  0
    1.5513    0.3517    1.7778 C   0  0  0  0  0  0
    0.6347   -0.7029    2.0155 N   0  0  0  0  0  0
   -0.0899   -1.4362    1.0572 C   0  0  0  0  0  0
    0.5708   -2.2720    0.1446 C   0  0  0  0  0  0
   -0.1392   -2.9583   -0.8417 C   0  0  0  0  0  0
   -1.5167   -2.7952   -0.9393 C   0  0  0  0  0  0
   -2.1838   -3.4466   -1.9013 F   0  0  0  0  0  0
   -2.1773   -1.9447   -0.0589 C   0  0  0  0  0  0
   -3.6253   -1.7409   -0.1728 C   0  0  0  0  0  0
   -4.3539   -2.5441    0.4026 O   0  0  0  0  0  0
   -4.0793   -0.6151   -0.8554 N   0  0  0  0  0  0
   -5.4994   -0.3010   -0.8367 C   0  0  0  0  0  0
   -3.2415    0.2556   -1.6664 C   0  0  0  0  0  0
   -1.4754   -1.2720    0.9472 C   0  0  0  0  0  0
    1.9456    0.7563    0.4945 C   0  0  0  0  0  0
    4.6257    1.7355   -2.6603 H   0  0  0  0  0  0
    5.2618    1.4428   -1.0378 H   0  0  0  0  0  0
    4.0519    0.3476   -1.7235 H   0  0  0  0  0  0
    2.3678    2.2316   -1.7301 H   0  0  0  0  0  0
    3.5743    3.3035   -1.0509 H   0  0  0  0  0  0
    4.1279    3.2443    1.3062 H   0  0  0  0  0  0
    1.8690    0.6622    3.8876 H   0  0  0  0  0  0
    0.0880   -0.5173    2.8540 H   0  0  0  0  0  0
    1.6493   -2.4028    0.2180 H   0  0  0  0  0  0
    0.3754   -3.6154   -1.5361 H   0  0  0  0  0  0
   -5.9252   -0.5679   -1.8073 H   0  0  0  0  0  0
   -5.6321    0.7731   -0.6731 H   0  0  0  0  0  0
   -6.0301   -0.8472   -0.0546 H   0  0  0  0  0  0
   -2.2721   -0.1919   -1.8964 H   0  0  0  0  0  0
   -3.0840    1.1887   -1.1198 H   0  0  0  0  0  0
   -3.7558    0.4616   -2.6092 H   0  0  0  0  0  0
   -2.0127   -0.6205    1.6304 H   0  0  0  0  0  0
    1.5260    0.2753   -0.3851 H   0  0  0  0  0  0
  1  2  1  0  0  0
  1 23  1  0  0  0
  1 24  1  0  0  0
  1 25  1  0  0  0
  2  3  1  0  0  0
  2 26  1  0  0  0
  2 27  1  0  0  0
  3  4  2  0  0  0
  3 22  1  0  0  0
  4  5  1  0  0  0
  4 28  1  0  0  0
  5  6  1  0  0  0
  5  7  2  0  0  0
  7  8  1  0  0  0
  7 29  1  0  0  0
  8  9  1  0  0  0
  8 22  2  0  0  0
  9 10  1  0  0  0
  9 30  1  0  0  0
 10 11  2  0  0  0
 10 21  1  0  0  0
 11 12  1  0  0  0
 11 31  1  0  0  0
 12 13  2  0  0  0
 12 32  1  0  0  0
 13 14  1  0  0  0
 13 15  1  0  0  0
 15 16  1  0  0  0
 15 21  2  0  0  0
 16 17  2  0  0  0
 16 18  1  0  0  0
 18 19  1  0  0  0
 18 20  1  0  0  0
 19 33  1  0  0  0
 19 34  1  0  0  0
 19 35  1  0  0  0
 20 36  1  0  0  0
 20 37  1  0  0  0
 20 38  1  0  0  0
 21 39  1  0  0  0
 22 40  1  0  0  0
M  END
> <energy>
26.9109

> <i_ionizer_Ion_state_n>
0

> <i_ionizer_Tot_Q>
0

> <s_ionizer_Ion_centers>


> <s_ionizer_Ion_types>


> <s_ionizer_Ion_ctrs_in>


> <r_ionizer_Ionization_penalty>
0

> <r_ionizer_Ionization_penalty_charging>
0

> <r_ionizer_Ionization_penalty_neutral>
0

$$$$
ZINC001211860067
                    3D
 Schrodinger Suite 2019-4.
 41 45  0  0  1  0            999 V2000
    1.7916    3.4192    2.4590 O   0  0  0  0  0  0
    2.2920    2.3330    2.2349 C   0  0  0  0  0  0
    3.2751    2.0086    1.1346 C   0  0  0  0  0  0
    3.4117    0.4750    1.1710 C   0  0  2  0  0  0
    2.7264   -0.1564    0.0149 C   0  0  0  0  0  0
    1.4995    0.0119   -0.4146 N   0  0  0  0  0  0
    1.3665   -1.0098   -1.3275 C   0  0  0  0  0  0
    0.0772   -1.3263   -1.9128 C   0  0  0  0  0  0
   -0.2828   -2.6602   -2.1552 C   0  0  0  0  0  0
   -1.5470   -2.9688   -2.6586 C   0  0  0  0  0  0
   -2.4512   -1.9448   -2.9442 C   0  0  0  0  0  0
   -2.0886   -0.6170   -2.7219 C   0  0  0  0  0  0
   -2.9269    0.3775   -3.1499 O   0  0  0  0  0  0
   -3.6807    1.0030   -2.0917 C   0  0  0  0  0  0
   -4.3759    2.2783   -2.5061 C   0  0  0  0  0  0
   -5.1742    1.0265   -2.2985 C   0  0  0  0  0  0
   -0.8345   -0.3006   -2.2010 C   0  0  0  0  0  0
    2.4875   -1.7255   -1.5190 N   0  0  0  0  0  0
    3.3990   -1.1475   -0.6360 O   0  0  0  0  0  0
    2.7469    0.0844    2.4678 C   0  0  0  0  0  0
    2.6770   -1.1743    3.0451 C   0  0  0  0  0  0
    1.9305   -1.3278    4.2193 C   0  0  0  0  0  0
    1.2656   -0.2344    4.7960 C   0  0  0  0  0  0
    0.3590   -0.4669    6.2405 Cl  0  0  0  0  0  0
    1.3262    1.0292    4.2128 C   0  0  0  0  0  0
    2.0709    1.1487    3.0524 C   0  0  0  0  0  0
    2.9101    2.3903    0.1754 H   0  0  0  0  0  0
    4.2329    2.4829    1.3826 H   0  0  0  0  0  0
    4.4687    0.1872    1.1885 H   0  0  0  0  0  0
    0.4177   -3.4680   -1.9503 H   0  0  0  0  0  0
   -1.8179   -4.0027   -2.8514 H   0  0  0  0  0  0
   -3.4259   -2.1780   -3.3631 H   0  0  0  0  0  0
   -3.3095    0.9702   -1.0713 H   0  0  0  0  0  0
   -4.2197    2.6314   -3.5182 H   0  0  0  0  0  0
   -4.4841    3.0687   -1.7728 H   0  0  0  0  0  0
   -5.5697    0.5186   -3.1686 H   0  0  0  0  0  0
   -5.8166    0.9874   -1.4275 H   0  0  0  0  0  0
   -0.5609    0.7402   -2.0456 H   0  0  0  0  0  0
    3.1649   -2.0337    2.5940 H   0  0  0  0  0  0
    1.8620   -2.3113    4.6797 H   0  0  0  0  0  0
    0.8071    1.8816    4.6374 H   0  0  0  0  0  0
  1  2  2  0  0  0
  2  3  1  0  0  0
  2 26  1  0  0  0
  3  4  1  0  0  0
  3 27  1  0  0  0
  3 28  1  0  0  0
  4  5  1  0  0  0
  4 20  1  0  0  0
  4 29  1  0  0  0
  5  6  2  0  0  0
  5 19  1  0  0  0
  6  7  1  0  0  0
  7  8  1  0  0  0
  7 18  2  0  0  0
  8  9  2  0  0  0
  8 17  1  0  0  0
  9 10  1  0  0  0
  9 30  1  0  0  0
 10 11  2  0  0  0
 10 31  1  0  0  0
 11 12  1  0  0  0
 11 32  1  0  0  0
 12 13  1  0  0  0
 12 17  2  0  0  0
 13 14  1  0  0  0
 14 15  1  0  0  0
 14 16  1  0  0  0
 14 33  1  0  0  0
 15 16  1  0  0  0
 15 34  1  0  0  0
 15 35  1  0  0  0
 16 36  1  0  0  0
 16 37  1  0  0  0
 17 38  1  0  0  0
 18 19  1  0  0  0
 20 21  2  0  0  0
 20 26  1  0  0  0
 21 22  1  0  0  0
 21 39  1  0  0  0
 22 23  2  0  0  0
 22 40  1  0  0  0
 23 24  1  0  0  0
 23 25  1  0  0  0
 25 26  2  0  0  0
 25 41  1  0  0  0
M  END
> <energy>
66.7745

> <i_ionizer_Ion_state_n>
0

> <i_ionizer_Tot_Q>
0

> <s_ionizer_Ion_centers>


> <s_ionizer_Ion_types>


> <s_ionizer_Ion_ctrs_in>


> <r_ionizer_Ionization_penalty>
0

> <r_ionizer_Ionization_penalty_charging>
0

> <r_ionizer_Ionization_penalty_neutral>
0

$$$$
ZINC001211860071
                    3D
 Schrodinger Suite 2019-4.
 41 45  0  0  1  0            999 V2000
    1.4879   -3.7558    2.2078 O   0  0  0  0  0  0
    2.0088   -2.6815    1.9723 C   0  0  0  0  0  0
    2.7732   -2.3135    0.7249 C   0  0  0  0  0  0
    3.1526   -0.8273    0.9109 C   0  0  1  0  0  0
    2.4779    0.0447   -0.0851 C   0  0  0  0  0  0
    1.2241    0.0571   -0.4776 N   0  0  0  0  0  0
    1.1716    1.1825   -1.2699 C   0  0  0  0  0  0
   -0.0744    1.6596   -1.8544 C   0  0  0  0  0  0
   -0.2264    3.0140   -2.1901 C   0  0  0  0  0  0
   -1.4270    3.4792   -2.7242 C   0  0  0  0  0  0
   -2.4759    2.5893   -2.9420 C   0  0  0  0  0  0
   -2.3389    1.2375   -2.6228 C   0  0  0  0  0  0
   -3.4373    0.4716   -2.9225 O   0  0  0  0  0  0
   -3.4433   -0.8993   -2.4919 C   0  0  0  0  0  0
   -4.8114   -1.5339   -2.4780 C   0  0  0  0  0  0
   -4.1349   -1.1834   -1.1875 C   0  0  0  0  0  0
   -1.1450    0.7746   -2.0673 C   0  0  0  0  0  0
    2.3540    1.8090   -1.4012 N   0  0  0  0  0  0
    3.2225    1.0512   -0.6212 O   0  0  0  0  0  0
    2.7019   -0.5059    2.3129 C   0  0  0  0  0  0
    2.8539    0.6866    3.0062 C   0  0  0  0  0  0
    2.2894    0.7922    4.2824 C   0  0  0  0  0  0
    1.5884   -0.2862    4.8468 C   0  0  0  0  0  0
    0.8928   -0.1146    6.4128 Cl  0  0  0  0  0  0
    1.4431   -1.4864    4.1570 C   0  0  0  0  0  0
    2.0134   -1.5603    2.8997 C   0  0  0  0  0  0
    3.6737   -2.9358    0.6793 H   0  0  0  0  0  0
    2.1561   -2.4989   -0.1597 H   0  0  0  0  0  0
    4.2422   -0.7192    0.8365 H   0  0  0  0  0  0
    0.5856    3.7188   -2.0259 H   0  0  0  0  0  0
   -1.5463    4.5295   -2.9721 H   0  0  0  0  0  0
   -3.4112    2.9480   -3.3653 H   0  0  0  0  0  0
   -2.6439   -1.5534   -2.8256 H   0  0  0  0  0  0
   -5.6577   -0.9318   -2.7891 H   0  0  0  0  0  0
   -4.8921   -2.5810   -2.7411 H   0  0  0  0  0  0
   -3.7576   -1.9947   -0.5761 H   0  0  0  0  0  0
   -4.5335   -0.3429   -0.6284 H   0  0  0  0  0  0
   -1.0216   -0.2712   -1.8045 H   0  0  0  0  0  0
    3.3779    1.5339    2.5685 H   0  0  0  0  0  0
    2.3842    1.7268    4.8314 H   0  0  0  0  0  0
    0.9033   -2.3293    4.5740 H   0  0  0  0  0  0
  1  2  2  0  0  0
  2  3  1  0  0  0
  2 26  1  0  0  0
  3  4  1  0  0  0
  3 27  1  0  0  0
  3 28  1  0  0  0
  4  5  1  0  0  0
  4 20  1  0  0  0
  4 29  1  0  0  0
  5  6  2  0  0  0
  5 19  1  0  0  0
  6  7  1  0  0  0
  7  8  1  0  0  0
  7 18  2  0  0  0
  8  9  2  0  0  0
  8 17  1  0  0  0
  9 10  1  0  0  0
  9 30  1  0  0  0
 10 11  2  0  0  0
 10 31  1  0  0  0
 11 12  1  0  0  0
 11 32  1  0  0  0
 12 13  1  0  0  0
 12 17  2  0  0  0
 13 14  1  0  0  0
 14 15  1  0  0  0
 14 16  1  0  0  0
 14 33  1  0  0  0
 15 16  1  0  0  0
 15 34  1  0  0  0
 15 35  1  0  0  0
 16 36  1  0  0  0
 16 37  1  0  0  0
 17 38  1  0  0  0
 18 19  1  0  0  0
 20 21  2  0  0  0
 20 26  1  0  0  0
 21 22  1  0  0  0
 21 39  1  0  0  0
 22 23  2  0  0  0
 22 40  1  0  0  0
 23 24  1  0  0  0
 23 25  1  0  0  0
 25 26  2  0  0  0
 25 41  1  0  0  0
M  END
> <energy>
64.0329

> <i_ionizer_Ion_state_n>
0

> <i_ionizer_Tot_Q>
0

> <s_ionizer_Ion_centers>


> <s_ionizer_Ion_types>


> <s_ionizer_Ion_ctrs_in>


> <r_ionizer_Ionization_penalty>
0

> <r_ionizer_Ionization_penalty_charging>
0

> <r_ionizer_Ionization_penalty_neutral>
0

$$$$
ZINC001211860158
                    3D
 Schrodinger Suite 2019-4.
 40 43  0  0  1  0            999 V2000
   -2.3769    1.9436   -2.6823 C   0  0  0  0  0  0
   -2.7931    1.8103   -1.2275 C   0  0  0  0  0  0
   -3.1546    0.4487   -0.9759 O   0  0  0  0  0  0
   -3.1753    0.1775    0.3696 C   0  0  0  0  0  0
   -4.1440    0.7552    1.1993 C   0  0  0  0  0  0
   -4.1637    0.4655    2.5657 C   0  0  0  0  0  0
   -3.2326   -0.4230    3.1041 C   0  0  0  0  0  0
   -2.2869   -1.0292    2.2727 C   0  0  0  0  0  0
   -2.2560   -0.7357    0.9002 C   0  0  0  0  0  0
   -1.2209   -1.3186    0.0756 C   0  0  0  0  0  0
   -1.1784   -2.6142   -0.2765 N   0  0  0  0  0  0
    0.0518   -2.7325   -0.9247 O   0  0  0  0  0  0
    0.6398   -1.5042   -0.8671 C   0  0  0  0  0  0
    2.0465   -1.4002   -1.3377 C   0  0  1  0  0  0
    2.2102   -0.2773   -2.3830 C   0  0  0  0  0  0
    2.9101    0.8353   -1.6429 C   0  0  0  0  0  0
    3.1094    1.9640   -2.0554 O   0  0  0  0  0  0
    3.3924    0.3375   -0.3619 C   0  0  0  0  0  0
    4.1685    0.9863    0.5815 C   0  0  0  0  0  0
    4.5028    0.2762    1.7306 C   0  0  0  0  0  0
    5.4236    1.0380    2.9655 Cl  0  0  0  0  0  0
    4.0790   -1.0544    1.9021 C   0  0  0  0  0  0
    3.2979   -1.6868    0.9262 C   0  0  0  0  0  0
    2.9553   -0.9750   -0.2128 C   0  0  0  0  0  0
   -0.1097   -0.5939   -0.2942 N   0  0  0  0  0  0
   -2.2650    2.9966   -2.9566 H   0  0  0  0  0  0
   -1.4180    1.4431   -2.8516 H   0  0  0  0  0  0
   -3.1064    1.4779   -3.3515 H   0  0  0  0  0  0
   -3.6574    2.4567   -1.0389 H   0  0  0  0  0  0
   -1.9568    2.1231   -0.5884 H   0  0  0  0  0  0
   -4.8903    1.4272    0.7868 H   0  0  0  0  0  0
   -4.9056    0.9299    3.2109 H   0  0  0  0  0  0
   -3.2410   -0.6365    4.1691 H   0  0  0  0  0  0
   -1.5670   -1.7237    2.7045 H   0  0  0  0  0  0
    2.3845   -2.3568   -1.7540 H   0  0  0  0  0  0
    1.2612    0.0723   -2.8037 H   0  0  0  0  0  0
    2.8748   -0.6056   -3.1916 H   0  0  0  0  0  0
    4.4947    2.0075    0.4207 H   0  0  0  0  0  0
    4.3461   -1.5991    2.8072 H   0  0  0  0  0  0
    2.9512   -2.7056    1.0858 H   0  0  0  0  0  0
  1  2  1  0  0  0
  1 26  1  0  0  0
  1 27  1  0  0  0
  1 28  1  0  0  0
  2  3  1  0  0  0
  2 29  1  0  0  0
  2 30  1  0  0  0
  3  4  1  0  0  0
  4  5  2  0  0  0
  4  9  1  0  0  0
  5  6  1  0  0  0
  5 31  1  0  0  0
  6  7  2  0  0  0
  6 32  1  0  0  0
  7  8  1  0  0  0
  7 33  1  0  0  0
  8  9  2  0  0  0
  8 34  1  0  0  0
  9 10  1  0  0  0
 10 11  2  0  0  0
 10 25  1  0  0  0
 11 12  1  0  0  0
 12 13  1  0  0  0
 13 14  1  0  0  0
 13 25  2  0  0  0
 14 15  1  0  0  0
 14 24  1  0  0  0
 14 35  1  0  0  0
 15 16  1  0  0  0
 15 36  1  0  0  0
 15 37  1  0  0  0
 16 17  2  0  0  0
 16 18  1  0  0  0
 18 19  2  0  0  0
 18 24  1  0  0  0
 19 20  1  0  0  0
 19 38  1  0  0  0
 20 21  1  0  0  0
 20 22  2  0  0  0
 22 23  1  0  0  0
 22 39  1  0  0  0
 23 24  2  0  0  0
 23 40  1  0  0  0
M  END
> <energy>
73.3962

> <i_ionizer_Ion_state_n>
0

> <i_ionizer_Tot_Q>
0

> <s_ionizer_Ion_centers>


> <s_ionizer_Ion_types>


> <s_ionizer_Ion_ctrs_in>


> <r_ionizer_Ionization_penalty>
0

> <r_ionizer_Ionization_penalty_charging>
0

> <r_ionizer_Ionization_penalty_neutral>
0

$$$$
ZINC001211860159
                    3D
 Schrodinger Suite 2019-4.
 40 43  0  0  1  0            999 V2000
   -3.0706    2.2087   -0.8875 C   0  0  0  0  0  0
   -3.6556    1.0023   -1.5998 C   0  0  0  0  0  0
   -2.8997   -0.1749   -1.3333 O   0  0  0  0  0  0
   -2.9978   -0.7716   -0.1041 C   0  0  0  0  0  0
   -4.1233   -0.6688    0.7219 C   0  0  0  0  0  0
   -4.1496   -1.2963    1.9703 C   0  0  0  0  0  0
   -3.0587   -2.0442    2.4010 C   0  0  0  0  0  0
   -1.9344   -2.1613    1.5837 C   0  0  0  0  0  0
   -1.8948   -1.5347    0.3259 C   0  0  0  0  0  0
   -0.6724   -1.6256   -0.4585 C   0  0  0  0  0  0
   -0.6105   -1.9554   -1.7596 N   0  0  0  0  0  0
    0.7362   -1.7904   -2.0805 O   0  0  0  0  0  0
    1.3590   -1.4029   -0.9317 C   0  0  0  0  0  0
    2.7950   -1.0253   -1.0333 C   0  0  2  0  0  0
    3.6616   -1.8156   -0.0315 C   0  0  0  0  0  0
    4.0008   -0.8174    1.0501 C   0  0  0  0  0  0
    4.5475   -1.0577    2.1099 O   0  0  0  0  0  0
    3.6417    0.5210    0.6034 C   0  0  0  0  0  0
    3.8659    1.7294    1.2347 C   0  0  0  0  0  0
    3.4215    2.8750    0.5789 C   0  0  0  0  0  0
    3.6613    4.4183    1.3044 Cl  0  0  0  0  0  0
    2.7741    2.7937   -0.6669 C   0  0  0  0  0  0
    2.5596    1.5540   -1.2788 C   0  0  0  0  0  0
    3.0035    0.4119   -0.6281 C   0  0  0  0  0  0
    0.5535   -1.3375    0.1032 N   0  0  0  0  0  0
   -3.5603    3.1301   -1.2139 H   0  0  0  0  0  0
   -1.9975    2.2910   -1.0874 H   0  0  0  0  0  0
   -3.1881    2.1248    0.1970 H   0  0  0  0  0  0
   -3.5828    1.1723   -2.6793 H   0  0  0  0  0  0
   -4.7214    0.8703   -1.3951 H   0  0  0  0  0  0
   -5.0048   -0.1119    0.4219 H   0  0  0  0  0  0
   -5.0263   -1.1994    2.6058 H   0  0  0  0  0  0
   -3.0802   -2.5333    3.3722 H   0  0  0  0  0  0
   -1.0824   -2.7434    1.9288 H   0  0  0  0  0  0
    3.1672   -1.1880   -2.0508 H   0  0  0  0  0  0
    3.1499   -2.6877    0.3882 H   0  0  0  0  0  0
    4.6028   -2.1282   -0.4997 H   0  0  0  0  0  0
    4.3603    1.7730    2.1989 H   0  0  0  0  0  0
    2.4201    3.6993   -1.1545 H   0  0  0  0  0  0
    2.0297    1.4963   -2.2259 H   0  0  0  0  0  0
  1  2  1  0  0  0
  1 26  1  0  0  0
  1 27  1  0  0  0
  1 28  1  0  0  0
  2  3  1  0  0  0
  2 29  1  0  0  0
  2 30  1  0  0  0
  3  4  1  0  0  0
  4  5  2  0  0  0
  4  9  1  0  0  0
  5  6  1  0  0  0
  5 31  1  0  0  0
  6  7  2  0  0  0
  6 32  1  0  0  0
  7  8  1  0  0  0
  7 33  1  0  0  0
  8  9  2  0  0  0
  8 34  1  0  0  0
  9 10  1  0  0  0
 10 11  2  0  0  0
 10 25  1  0  0  0
 11 12  1  0  0  0
 12 13  1  0  0  0
 13 14  1  0  0  0
 13 25  2  0  0  0
 14 15  1  0  0  0
 14 24  1  0  0  0
 14 35  1  0  0  0
 15 16  1  0  0  0
 15 36  1  0  0  0
 15 37  1  0  0  0
 16 17  2  0  0  0
 16 18  1  0  0  0
 18 19  2  0  0  0
 18 24  1  0  0  0
 19 20  1  0  0  0
 19 38  1  0  0  0
 20 21  1  0  0  0
 20 22  2  0  0  0
 22 23  1  0  0  0
 22 39  1  0  0  0
 23 24  2  0  0  0
 23 40  1  0  0  0
M  END
> <energy>
74.8036

> <i_ionizer_Ion_state_n>
0

> <i_ionizer_Tot_Q>
0

> <s_ionizer_Ion_centers>


> <s_ionizer_Ion_types>


> <s_ionizer_Ion_ctrs_in>


> <r_ionizer_Ionization_penalty>
0

> <r_ionizer_Ionization_penalty_charging>
0

> <r_ionizer_Ionization_penalty_neutral>
0

$$$$
ZINC001211860163
                    3D
 Schrodinger Suite 2019-4.
 36 39  0  0  1  0            999 V2000
   -4.5500    1.5772    1.9149 C   0  0  0  0  0  0
   -4.0380    0.9918    0.6395 C   0  0  0  0  0  0
   -4.6907    1.1972   -0.5752 C   0  0  0  0  0  0
   -5.7826    1.9716   -0.6293 F   0  0  0  0  0  0
   -4.2313    0.6059   -1.7518 C   0  0  0  0  0  0
   -3.0991   -0.2098   -1.7256 C   0  0  0  0  0  0
   -2.4283   -0.4347   -0.5145 C   0  0  0  0  0  0
   -1.2254   -1.2397   -0.4745 C   0  0  0  0  0  0
   -1.0816   -2.4040   -1.1289 N   0  0  0  0  0  0
    0.2494   -2.7503   -0.8916 O   0  0  0  0  0  0
    0.7826   -1.7492   -0.1337 C   0  0  0  0  0  0
    2.2406   -1.8288    0.1600 C   0  0  2  0  0  0
    2.5186   -1.7827    1.6782 C   0  0  0  0  0  0
    3.1254   -0.4219    1.9176 C   0  0  0  0  0  0
    3.3821    0.0800    2.9960 O   0  0  0  0  0  0
    3.4372    0.2007    0.6412 C   0  0  0  0  0  0
    4.0791    1.4010    0.4045 C   0  0  0  0  0  0
    4.2784    1.7635   -0.9250 C   0  0  0  0  0  0
    5.0593    3.2539   -1.2962 Cl  0  0  0  0  0  0
    3.8435    0.9344   -1.9707 C   0  0  0  0  0  0
    3.1875   -0.2709   -1.6996 C   0  0  0  0  0  0
    2.9842   -0.6320   -0.3761 C   0  0  0  0  0  0
   -0.0830   -0.8104    0.1644 N   0  0  0  0  0  0
   -2.9137    0.1598    0.6548 C   0  0  0  0  0  0
   -2.3121   -0.0835    1.8309 F   0  0  0  0  0  0
   -5.1751    0.8420    2.4317 H   0  0  0  0  0  0
   -3.7162    1.8551    2.5700 H   0  0  0  0  0  0
   -5.1401    2.4818    1.7396 H   0  0  0  0  0  0
   -4.7577    0.7865   -2.6838 H   0  0  0  0  0  0
   -2.7286   -0.6524   -2.6486 H   0  0  0  0  0  0
    2.6559   -2.7521   -0.2577 H   0  0  0  0  0  0
    3.2709   -2.5328    1.9498 H   0  0  0  0  0  0
    1.6227   -1.9271    2.2908 H   0  0  0  0  0  0
    4.4126    2.0288    1.2228 H   0  0  0  0  0  0
    3.9921    1.2403   -3.0055 H   0  0  0  0  0  0
    2.8313   -0.8892   -2.5183 H   0  0  0  0  0  0
  1  2  1  0  0  0
  1 26  1  0  0  0
  1 27  1  0  0  0
  1 28  1  0  0  0
  2  3  2  0  0  0
  2 24  1  0  0  0
  3  4  1  0  0  0
  3  5  1  0  0  0
  5  6  2  0  0  0
  5 29  1  0  0  0
  6  7  1  0  0  0
  6 30  1  0  0  0
  7  8  1  0  0  0
  7 24  2  0  0  0
  8  9  2  0  0  0
  8 23  1  0  0  0
  9 10  1  0  0  0
 10 11  1  0  0  0
 11 12  1  0  0  0
 11 23  2  0  0  0
 12 13  1  0  0  0
 12 22  1  0  0  0
 12 31  1  0  0  0
 13 14  1  0  0  0
 13 32  1  0  0  0
 13 33  1  0  0  0
 14 15  2  0  0  0
 14 16  1  0  0  0
 16 17  2  0  0  0
 16 22  1  0  0  0
 17 18  1  0  0  0
 17 34  1  0  0  0
 18 19  1  0  0  0
 18 20  2  0  0  0
 20 21  1  0  0  0
 20 35  1  0  0  0
 21 22  2  0  0  0
 21 36  1  0  0  0
 24 25  1  0  0  0
M  END
> <energy>
50.1998

> <i_ionizer_Ion_state_n>
0

> <i_ionizer_Tot_Q>
0

> <s_ionizer_Ion_centers>


> <s_ionizer_Ion_types>


> <s_ionizer_Ion_ctrs_in>


> <r_ionizer_Ionization_penalty>
0

> <r_ionizer_Ionization_penalty_charging>
0

> <r_ionizer_Ionization_penalty_neutral>
0

$$$$
ZINC001211860164
                    3D
 Schrodinger Suite 2019-4.
 36 39  0  0  1  0            999 V2000
   -5.1681    0.7397    2.1922 C   0  0  0  0  0  0
   -4.6047    0.6652    0.8085 C   0  0  0  0  0  0
   -5.4439    0.5410   -0.2987 C   0  0  0  0  0  0
   -6.7732    0.5112   -0.1272 F   0  0  0  0  0  0
   -4.9291    0.4347   -1.5907 C   0  0  0  0  0  0
   -3.5450    0.4433   -1.7910 C   0  0  0  0  0  0
   -2.6803    0.5338   -0.6893 C   0  0  0  0  0  0
   -1.2471    0.4670   -0.8797 C   0  0  0  0  0  0
   -0.5485    1.3506   -1.6082 N   0  0  0  0  0  0
    0.7585    0.8629   -1.5610 O   0  0  0  0  0  0
    0.7114   -0.2924   -0.8316 C   0  0  0  0  0  0
    1.9633   -1.0787   -0.6640 C   0  0  1  0  0  0
    2.7277   -1.3236   -1.9797 C   0  0  0  0  0  0
    4.1804   -1.2491   -1.5785 C   0  0  0  0  0  0
    5.1396   -1.5666   -2.2617 O   0  0  0  0  0  0
    4.2889   -0.6852   -0.2384 C   0  0  0  0  0  0
    5.4355   -0.3723    0.4720 C   0  0  0  0  0  0
    5.2618    0.1606    1.7452 C   0  0  0  0  0  0
    6.6390    0.5085    2.7206 Cl  0  0  0  0  0  0
    3.9742    0.4004    2.2555 C   0  0  0  0  0  0
    2.8315    0.0717    1.5138 C   0  0  0  0  0  0
    3.0010   -0.4894    0.2567 C   0  0  0  0  0  0
   -0.4957   -0.5775   -0.3960 N   0  0  0  0  0  0
   -3.2204    0.6441    0.5977 C   0  0  0  0  0  0
   -2.4053    0.7311    1.6612 F   0  0  0  0  0  0
   -6.1188    1.2841    2.1986 H   0  0  0  0  0  0
   -5.3326   -0.2692    2.5877 H   0  0  0  0  0  0
   -4.4882    1.2777    2.8618 H   0  0  0  0  0  0
   -5.6137    0.3301   -2.4293 H   0  0  0  0  0  0
   -3.1461    0.3537   -2.7993 H   0  0  0  0  0  0
    1.6899   -2.0577   -0.2514 H   0  0  0  0  0  0
    2.5384   -0.5589   -2.7392 H   0  0  0  0  0  0
    2.5000   -2.3130   -2.3902 H   0  0  0  0  0  0
    6.4214   -0.5507    0.0567 H   0  0  0  0  0  0
    3.8587    0.8369    3.2440 H   0  0  0  0  0  0
    1.8397    0.2360    1.9329 H   0  0  0  0  0  0
  1  2  1  0  0  0
  1 26  1  0  0  0
  1 27  1  0  0  0
  1 28  1  0  0  0
  2  3  2  0  0  0
  2 24  1  0  0  0
  3  4  1  0  0  0
  3  5  1  0  0  0
  5  6  2  0  0  0
  5 29  1  0  0  0
  6  7  1  0  0  0
  6 30  1  0  0  0
  7  8  1  0  0  0
  7 24  2  0  0  0
  8  9  2  0  0  0
  8 23  1  0  0  0
  9 10  1  0  0  0
 10 11  1  0  0  0
 11 12  1  0  0  0
 11 23  2  0  0  0
 12 13  1  0  0  0
 12 22  1  0  0  0
 12 31  1  0  0  0
 13 14  1  0  0  0
 13 32  1  0  0  0
 13 33  1  0  0  0
 14 15  2  0  0  0
 14 16  1  0  0  0
 16 17  2  0  0  0
 16 22  1  0  0  0
 17 18  1  0  0  0
 17 34  1  0  0  0
 18 19  1  0  0  0
 18 20  2  0  0  0
 20 21  1  0  0  0
 20 35  1  0  0  0
 21 22  2  0  0  0
 21 36  1  0  0  0
 24 25  1  0  0  0
M  END
> <energy>
52.5697

> <i_ionizer_Ion_state_n>
0

> <i_ionizer_Tot_Q>
0

> <s_ionizer_Ion_centers>


> <s_ionizer_Ion_types>


> <s_ionizer_Ion_ctrs_in>


> <r_ionizer_Ionization_penalty>
0

> <r_ionizer_Ionization_penalty_charging>
0

> <r_ionizer_Ionization_penalty_neutral>
0

$$$$
ZINC001211860165
                    3D
 Schrodinger Suite 2019-4.
 33 36  0  0  1  0            999 V2000
    4.8174   -1.6356    0.8032 O   0  0  0  0  0  0
    3.8044   -1.3140    0.2132 C   0  0  0  0  0  0
    2.6273   -2.2037   -0.0853 C   0  0  0  0  0  0
    1.6531   -1.3330   -0.9150 C   0  0  1  0  0  0
    0.2590   -1.3565   -0.3849 C   0  0  0  0  0  0
   -0.6626   -0.4181   -0.3726 N   0  0  0  0  0  0
   -1.7146   -1.0421    0.2545 C   0  0  0  0  0  0
   -2.9377   -0.3507    0.5903 C   0  0  0  0  0  0
   -3.3998   -0.3639    1.9129 C   0  0  0  0  0  0
   -4.5743    0.3090    2.2531 C   0  0  0  0  0  0
   -5.2877    0.9965    1.2713 C   0  0  0  0  0  0
   -6.7350    1.8231    1.6988 Cl  0  0  0  0  0  0
   -4.8439    1.0116   -0.0479 C   0  0  0  0  0  0
   -3.6694    0.3394   -0.3801 C   0  0  0  0  0  0
   -3.2736    0.3463   -1.6621 F   0  0  0  0  0  0
   -1.4720   -2.3154    0.6000 N   0  0  0  0  0  0
   -0.1791   -2.5373    0.1427 O   0  0  0  0  0  0
    2.3049    0.0315   -0.9152 C   0  0  0  0  0  0
    1.8381    1.2123   -1.4765 C   0  0  0  0  0  0
    2.6400    2.3569   -1.3986 C   0  0  0  0  0  0
    3.8965    2.3123   -0.7730 C   0  0  0  0  0  0
    4.8556    3.7395   -0.6955 Cl  0  0  0  0  0  0
    4.3735    1.1316   -0.2116 C   0  0  0  0  0  0
    3.5521    0.0215   -0.2984 C   0  0  0  0  0  0
    2.9678   -3.0653   -0.6706 H   0  0  0  0  0  0
    2.2050   -2.5504    0.8652 H   0  0  0  0  0  0
    1.6338   -1.7040   -1.9474 H   0  0  0  0  0  0
   -2.8462   -0.8925    2.6846 H   0  0  0  0  0  0
   -4.9228    0.2930    3.2830 H   0  0  0  0  0  0
   -5.4020    1.5327   -0.8193 H   0  0  0  0  0  0
    0.8669    1.2595   -1.9647 H   0  0  0  0  0  0
    2.2823    3.2910   -1.8276 H   0  0  0  0  0  0
    5.3429    1.0750    0.2733 H   0  0  0  0  0  0
  1  2  2  0  0  0
  2  3  1  0  0  0
  2 24  1  0  0  0
  3  4  1  0  0  0
  3 25  1  0  0  0
  3 26  1  0  0  0
  4  5  1  0  0  0
  4 18  1  0  0  0
  4 27  1  0  0  0
  5  6  2  0  0  0
  5 17  1  0  0  0
  6  7  1  0  0  0
  7  8  1  0  0  0
  7 16  2  0  0  0
  8  9  2  0  0  0
  8 14  1  0  0  0
  9 10  1  0  0  0
  9 28  1  0  0  0
 10 11  2  0  0  0
 10 29  1  0  0  0
 11 12  1  0  0  0
 11 13  1  0  0  0
 13 14  2  0  0  0
 13 30  1  0  0  0
 14 15  1  0  0  0
 16 17  1  0  0  0
 18 19  2  0  0  0
 18 24  1  0  0  0
 19 20  1  0  0  0
 19 31  1  0  0  0
 20 21  2  0  0  0
 20 32  1  0  0  0
 21 22  1  0  0  0
 21 23  1  0  0  0
 23 24  2  0  0  0
 23 33  1  0  0  0
M  END
> <energy>
50.1927

> <i_ionizer_Ion_state_n>
0

> <i_ionizer_Tot_Q>
0

> <s_ionizer_Ion_centers>


> <s_ionizer_Ion_types>


> <s_ionizer_Ion_ctrs_in>


> <r_ionizer_Ionization_penalty>
0

> <r_ionizer_Ionization_penalty_charging>
0

> <r_ionizer_Ionization_penalty_neutral>
0

$$$$
ZINC001211860166
                    3D
 Schrodinger Suite 2019-4.
 33 36  0  0  1  0            999 V2000
    4.0930    0.3367    3.0487 O   0  0  0  0  0  0
    3.3949    0.3511    2.0512 C   0  0  0  0  0  0
    2.5610    1.5075    1.5545 C   0  0  0  0  0  0
    2.0783    1.0702    0.1580 C   0  0  2  0  0  0
    0.6495    1.3914   -0.1032 C   0  0  0  0  0  0
   -0.4215    0.6401    0.0378 N   0  0  0  0  0  0
   -1.4178    1.4137   -0.5062 C   0  0  0  0  0  0
   -2.7880    0.9370   -0.6219 C   0  0  0  0  0  0
   -3.6026    1.3054   -1.7095 C   0  0  0  0  0  0
   -4.9124    0.8181   -1.8145 C   0  0  0  0  0  0
   -5.4144   -0.0319   -0.8254 C   0  0  0  0  0  0
   -7.0225   -0.6324   -0.9507 Cl  0  0  0  0  0  0
   -4.6276   -0.4062    0.2583 C   0  0  0  0  0  0
   -3.3220    0.0763    0.3495 C   0  0  0  0  0  0
   -2.5910   -0.2985    1.4126 F   0  0  0  0  0  0
   -0.9925    2.6118   -0.9450 N   0  0  0  0  0  0
    0.3771    2.6059   -0.6655 O   0  0  0  0  0  0
    2.4072   -0.3999    0.1060 C   0  0  0  0  0  0
    2.0755   -1.3281   -0.8751 C   0  0  0  0  0  0
    2.6146   -2.6198   -0.7872 C   0  0  0  0  0  0
    3.4853   -2.9578    0.2645 C   0  0  0  0  0  0
    4.1926   -4.5264    0.3013 Cl  0  0  0  0  0  0
    3.8042   -2.0383    1.2583 C   0  0  0  0  0  0
    3.2360   -0.7816    1.1546 C   0  0  0  0  0  0
    1.7407    1.6965    2.2517 H   0  0  0  0  0  0
    3.2024    2.3956    1.4826 H   0  0  0  0  0  0
    2.7008    1.5708   -0.5946 H   0  0  0  0  0  0
   -3.2202    1.9636   -2.4924 H   0  0  0  0  0  0
   -5.5324    1.1006   -2.6646 H   0  0  0  0  0  0
   -5.0048   -1.0643    1.0393 H   0  0  0  0  0  0
    1.4128   -1.0699   -1.6970 H   0  0  0  0  0  0
    2.3667   -3.3552   -1.5492 H   0  0  0  0  0  0
    4.4773   -2.2820    2.0733 H   0  0  0  0  0  0
  1  2  2  0  0  0
  2  3  1  0  0  0
  2 24  1  0  0  0
  3  4  1  0  0  0
  3 25  1  0  0  0
  3 26  1  0  0  0
  4  5  1  0  0  0
  4 18  1  0  0  0
  4 27  1  0  0  0
  5  6  2  0  0  0
  5 17  1  0  0  0
  6  7  1  0  0  0
  7  8  1  0  0  0
  7 16  2  0  0  0
  8  9  2  0  0  0
  8 14  1  0  0  0
  9 10  1  0  0  0
  9 28  1  0  0  0
 10 11  2  0  0  0
 10 29  1  0  0  0
 11 12  1  0  0  0
 11 13  1  0  0  0
 13 14  2  0  0  0
 13 30  1  0  0  0
 14 15  1  0  0  0
 16 17  1  0  0  0
 18 19  2  0  0  0
 18 24  1  0  0  0
 19 20  1  0  0  0
 19 31  1  0  0  0
 20 21  2  0  0  0
 20 32  1  0  0  0
 21 22  1  0  0  0
 21 23  1  0  0  0
 23 24  2  0  0  0
 23 33  1  0  0  0
M  END
> <energy>
49.4098

> <i_ionizer_Ion_state_n>
0

> <i_ionizer_Tot_Q>
0

> <s_ionizer_Ion_centers>


> <s_ionizer_Ion_types>


> <s_ionizer_Ion_ctrs_in>


> <r_ionizer_Ionization_penalty>
0

> <r_ionizer_Ionization_penalty_charging>
0

> <r_ionizer_Ionization_penalty_neutral>
0

$$$$
ZINC001211860169
                    3D
 Schrodinger Suite 2019-4.
 33 36  0  0  1  0            999 V2000
    4.9244   -1.2369   -1.6205 O   0  0  0  0  0  0
    3.8737   -0.7200   -1.2858 C   0  0  0  0  0  0
    2.5013   -1.1056   -1.7735 C   0  0  0  0  0  0
    1.5756   -0.0149   -1.2087 C   0  0  1  0  0  0
    0.3368   -0.5624   -0.6059 C   0  0  0  0  0  0
   -0.9095   -0.3194   -0.9350 N   0  0  0  0  0  0
   -1.6079   -0.9383    0.0766 C   0  0  0  0  0  0
   -3.0507   -0.8067    0.1850 C   0  0  0  0  0  0
   -3.6835   -0.8334    1.4382 C   0  0  0  0  0  0
   -5.0617   -0.6220    1.5397 C   0  0  0  0  0  0
   -5.8126   -0.3959    0.3871 C   0  0  0  0  0  0
   -7.5014   -0.1143    0.5218 Cl  0  0  0  0  0  0
   -5.1890   -0.3873   -0.8581 C   0  0  0  0  0  0
   -5.8946   -0.1723   -1.9775 F   0  0  0  0  0  0
   -3.8175   -0.5872   -0.9664 C   0  0  0  0  0  0
   -0.8340   -1.5829    0.9631 N   0  0  0  0  0  0
    0.4583   -1.3427    0.5066 O   0  0  0  0  0  0
    2.4377    0.7436   -0.2326 C   0  0  0  0  0  0
    2.0615    1.7451    0.6529 C   0  0  0  0  0  0
    3.0472    2.3283    1.4558 C   0  0  0  0  0  0
    4.3879    1.9209    1.3510 C   0  0  0  0  0  0
    5.5710    2.6643    2.3532 Cl  0  0  0  0  0  0
    4.7696    0.9251    0.4552 C   0  0  0  0  0  0
    3.7703    0.3568   -0.3124 C   0  0  0  0  0  0
    2.4808   -1.1051   -2.8678 H   0  0  0  0  0  0
    2.2645   -2.1087   -1.4037 H   0  0  0  0  0  0
    1.3031    0.6739   -2.0200 H   0  0  0  0  0  0
   -3.1034   -0.9915    2.3468 H   0  0  0  0  0  0
   -5.5372   -0.6233    2.5174 H   0  0  0  0  0  0
   -3.3575   -0.5600   -1.9504 H   0  0  0  0  0  0
    1.0272    2.0706    0.7368 H   0  0  0  0  0  0
    2.7689    3.1046    2.1660 H   0  0  0  0  0  0
    5.8007    0.5976    0.3648 H   0  0  0  0  0  0
  1  2  2  0  0  0
  2  3  1  0  0  0
  2 24  1  0  0  0
  3  4  1  0  0  0
  3 25  1  0  0  0
  3 26  1  0  0  0
  4  5  1  0  0  0
  4 18  1  0  0  0
  4 27  1  0  0  0
  5  6  2  0  0  0
  5 17  1  0  0  0
  6  7  1  0  0  0
  7  8  1  0  0  0
  7 16  2  0  0  0
  8  9  2  0  0  0
  8 15  1  0  0  0
  9 10  1  0  0  0
  9 28  1  0  0  0
 10 11  2  0  0  0
 10 29  1  0  0  0
 11 12  1  0  0  0
 11 13  1  0  0  0
 13 14  1  0  0  0
 13 15  2  0  0  0
 15 30  1  0  0  0
 16 17  1  0  0  0
 18 19  2  0  0  0
 18 24  1  0  0  0
 19 20  1  0  0  0
 19 31  1  0  0  0
 20 21  2  0  0  0
 20 32  1  0  0  0
 21 22  1  0  0  0
 21 23  1  0  0  0
 23 24  2  0  0  0
 23 33  1  0  0  0
M  END
> <energy>
57.8919

> <i_ionizer_Ion_state_n>
0

> <i_ionizer_Tot_Q>
0

> <s_ionizer_Ion_centers>


> <s_ionizer_Ion_types>


> <s_ionizer_Ion_ctrs_in>


> <r_ionizer_Ionization_penalty>
0

> <r_ionizer_Ionization_penalty_charging>
0

> <r_ionizer_Ionization_penalty_neutral>
0

$$$$
ZINC001211860170
                    3D
 Schrodinger Suite 2019-4.
 33 36  0  0  1  0            999 V2000
    0.2609    1.4603    4.1800 O   0  0  0  0  0  0
    0.4778    0.5426    3.4078 C   0  0  0  0  0  0
    1.6968    0.3813    2.5398 C   0  0  0  0  0  0
    1.4115   -0.8781    1.6837 C   0  0  2  0  0  0
    1.3697   -0.5249    0.2417 C   0  0  0  0  0  0
    0.4589    0.1133   -0.4574 N   0  0  0  0  0  0
    1.0636    0.2388   -1.6902 C   0  0  0  0  0  0
    0.4356    0.9541   -2.7913 C   0  0  0  0  0  0
    1.2091    1.6057   -3.7655 C   0  0  0  0  0  0
    0.5969    2.3369   -4.7905 C   0  0  0  0  0  0
   -0.7932    2.4062   -4.8560 C   0  0  0  0  0  0
   -1.5379    3.3280   -6.1024 Cl  0  0  0  0  0  0
   -1.5632    1.7368   -3.9077 C   0  0  0  0  0  0
   -2.9031    1.7744   -3.9678 F   0  0  0  0  0  0
   -0.9617    1.0202   -2.8768 C   0  0  0  0  0  0
    2.2810   -0.3251   -1.7595 N   0  0  0  0  0  0
    2.4812   -0.8397   -0.4819 O   0  0  0  0  0  0
    0.1119   -1.4105    2.2282 C   0  0  0  0  0  0
   -0.5573   -2.5740    1.8733 C   0  0  0  0  0  0
   -1.7454   -2.8901    2.5445 C   0  0  0  0  0  0
   -2.2445   -2.0544    3.5588 C   0  0  0  0  0  0
   -3.6894   -2.4873    4.3877 Cl  0  0  0  0  0  0
   -1.5774   -0.8837    3.9082 C   0  0  0  0  0  0
   -0.4129   -0.5929    3.2242 C   0  0  0  0  0  0
    1.8551    1.2865    1.9412 H   0  0  0  0  0  0
    2.5649    0.2218    3.1908 H   0  0  0  0  0  0
    2.2007   -1.6184    1.8646 H   0  0  0  0  0  0
    2.2965    1.5678   -3.7206 H   0  0  0  0  0  0
    1.2106    2.8475   -5.5278 H   0  0  0  0  0  0
   -1.5936    0.5170   -2.1495 H   0  0  0  0  0  0
   -0.1807   -3.2303    1.0943 H   0  0  0  0  0  0
   -2.2826   -3.7999    2.2821 H   0  0  0  0  0  0
   -1.9398   -0.2299    4.6942 H   0  0  0  0  0  0
  1  2  2  0  0  0
  2  3  1  0  0  0
  2 24  1  0  0  0
  3  4  1  0  0  0
  3 25  1  0  0  0
  3 26  1  0  0  0
  4  5  1  0  0  0
  4 18  1  0  0  0
  4 27  1  0  0  0
  5  6  2  0  0  0
  5 17  1  0  0  0
  6  7  1  0  0  0
  7  8  1  0  0  0
  7 16  2  0  0  0
  8  9  2  0  0  0
  8 15  1  0  0  0
  9 10  1  0  0  0
  9 28  1  0  0  0
 10 11  2  0  0  0
 10 29  1  0  0  0
 11 12  1  0  0  0
 11 13  1  0  0  0
 13 14  1  0  0  0
 13 15  2  0  0  0
 15 30  1  0  0  0
 16 17  1  0  0  0
 18 19  2  0  0  0
 18 24  1  0  0  0
 19 20  1  0  0  0
 19 31  1  0  0  0
 20 21  2  0  0  0
 20 32  1  0  0  0
 21 22  1  0  0  0
 21 23  1  0  0  0
 23 24  2  0  0  0
 23 33  1  0  0  0
M  END
> <energy>
57.7177

> <i_ionizer_Ion_state_n>
0

> <i_ionizer_Tot_Q>
0

> <s_ionizer_Ion_centers>


> <s_ionizer_Ion_types>


> <s_ionizer_Ion_ctrs_in>


> <r_ionizer_Ionization_penalty>
0

> <r_ionizer_Ionization_penalty_charging>
0

> <r_ionizer_Ionization_penalty_neutral>
0

$$$$
ZINC001211860190
                    3D
 Schrodinger Suite 2019-4.
 39 42  0  0  1  0            999 V2000
    2.8502   -3.6170   -0.9247 C   0  0  0  0  0  0
    2.9647   -2.1427   -0.6901 C   0  0  0  0  0  0
    1.9991   -1.4625    0.0674 C   0  0  0  0  0  0
    2.0869   -0.0743    0.2440 C   0  0  0  0  0  0
    1.0618    0.6468    0.9763 C   0  0  0  0  0  0
    1.3190    1.5368    1.9449 N   0  0  0  0  0  0
    0.0662    2.0695    2.2438 O   0  0  0  0  0  0
   -0.8199    1.4490    1.4152 C   0  0  0  0  0  0
   -2.2368    1.9095    1.4763 C   0  0  1  0  0  0
   -2.5215    2.9244    0.3476 C   0  0  0  0  0  0
   -3.4383    2.1970   -0.6049 C   0  0  0  0  0  0
   -3.8476    2.6162   -1.6714 O   0  0  0  0  0  0
   -3.8182    0.9122   -0.0332 C   0  0  0  0  0  0
   -4.6287   -0.0715   -0.5721 C   0  0  0  0  0  0
   -4.8297   -1.2161    0.1956 C   0  0  0  0  0  0
   -5.8067   -2.4932   -0.4185 Cl  0  0  0  0  0  0
   -4.2343   -1.3539    1.4623 C   0  0  0  0  0  0
   -3.4085   -0.3490    1.9743 C   0  0  0  0  0  0
   -3.1922    0.7819    1.2009 C   0  0  0  0  0  0
   -0.2680    0.5421    0.6425 N   0  0  0  0  0  0
    3.1272    0.6450   -0.3632 C   0  0  0  0  0  0
    4.0772   -0.0157   -1.1523 C   0  0  0  0  0  0
    5.1321    0.7467   -1.8932 C   0  0  0  0  0  0
    3.9911   -1.4064   -1.2946 C   0  0  0  0  0  0
    4.9006   -2.0415   -2.0534 F   0  0  0  0  0  0
    2.2630   -4.0975   -0.1356 H   0  0  0  0  0  0
    3.8340   -4.0981   -0.9381 H   0  0  0  0  0  0
    2.3548   -3.8007   -1.8824 H   0  0  0  0  0  0
    1.1712   -2.0138    0.5121 H   0  0  0  0  0  0
   -2.4554    2.3607    2.4490 H   0  0  0  0  0  0
   -1.6186    3.2468   -0.1808 H   0  0  0  0  0  0
   -3.0485    3.8016    0.7360 H   0  0  0  0  0  0
   -5.0669    0.0442   -1.5550 H   0  0  0  0  0  0
   -4.3999   -2.2552    2.0452 H   0  0  0  0  0  0
   -2.9308   -0.4759    2.9421 H   0  0  0  0  0  0
    3.1694    1.7268   -0.2460 H   0  0  0  0  0  0
    4.9629    0.6571   -2.9705 H   0  0  0  0  0  0
    6.1259    0.3598   -1.6548 H   0  0  0  0  0  0
    5.1129    1.8108   -1.6407 H   0  0  0  0  0  0
  1  2  1  0  0  0
  1 26  1  0  0  0
  1 27  1  0  0  0
  1 28  1  0  0  0
  2  3  2  0  0  0
  2 24  1  0  0  0
  3  4  1  0  0  0
  3 29  1  0  0  0
  4  5  1  0  0  0
  4 21  2  0  0  0
  5  6  2  0  0  0
  5 20  1  0  0  0
  6  7  1  0  0  0
  7  8  1  0  0  0
  8  9  1  0  0  0
  8 20  2  0  0  0
  9 10  1  0  0  0
  9 19  1  0  0  0
  9 30  1  0  0  0
 10 11  1  0  0  0
 10 31  1  0  0  0
 10 32  1  0  0  0
 11 12  2  0  0  0
 11 13  1  0  0  0
 13 14  2  0  0  0
 13 19  1  0  0  0
 14 15  1  0  0  0
 14 33  1  0  0  0
 15 16  1  0  0  0
 15 17  2  0  0  0
 17 18  1  0  0  0
 17 34  1  0  0  0
 18 19  2  0  0  0
 18 35  1  0  0  0
 21 22  1  0  0  0
 21 36  1  0  0  0
 22 23  1  0  0  0
 22 24  2  0  0  0
 23 37  1  0  0  0
 23 38  1  0  0  0
 23 39  1  0  0  0
 24 25  1  0  0  0
M  END
> <energy>
64.7375

> <i_ionizer_Ion_state_n>
0

> <i_ionizer_Tot_Q>
0

> <s_ionizer_Ion_centers>


> <s_ionizer_Ion_types>


> <s_ionizer_Ion_ctrs_in>


> <r_ionizer_Ionization_penalty>
0

> <r_ionizer_Ionization_penalty_charging>
0

> <r_ionizer_Ionization_penalty_neutral>
0

$$$$
ZINC001211860191
                    3D
 Schrodinger Suite 2019-4.
 39 42  0  0  1  0            999 V2000
    5.3567   -0.6679   -1.3144 C   0  0  0  0  0  0
    3.9444   -0.1920   -1.4522 C   0  0  0  0  0  0
    2.8692   -1.0211   -1.0961 C   0  0  0  0  0  0
    1.5480   -0.5526   -1.1704 C   0  0  0  0  0  0
    0.4301   -1.3878   -0.7494 C   0  0  0  0  0  0
    0.5119   -2.7022   -0.4790 N   0  0  0  0  0  0
   -0.7498   -3.0198    0.0253 O   0  0  0  0  0  0
   -1.4680   -1.8641    0.0096 C   0  0  0  0  0  0
   -2.7764   -1.8584    0.7181 C   0  0  2  0  0  0
   -3.9126   -1.3463   -0.1910 C   0  0  0  0  0  0
   -4.1045    0.0895    0.2340 C   0  0  0  0  0  0
   -4.7655    0.9329   -0.3433 O   0  0  0  0  0  0
   -3.4268    0.3153    1.5026 C   0  0  0  0  0  0
   -3.4107    1.4539    2.2861 C   0  0  0  0  0  0
   -2.6553    1.4110    3.4561 C   0  0  0  0  0  0
   -2.5720    2.8006    4.4679 Cl  0  0  0  0  0  0
   -1.9514    0.2499    3.8178 C   0  0  0  0  0  0
   -1.9832   -0.8882    3.0038 C   0  0  0  0  0  0
   -2.7312   -0.8428    1.8346 C   0  0  0  0  0  0
   -0.8141   -0.8511   -0.5111 N   0  0  0  0  0  0
    1.3144    0.7637   -1.6082 C   0  0  0  0  0  0
    2.3763    1.6006   -1.9785 C   0  0  0  0  0  0
    2.1256    3.0126   -2.4124 C   0  0  0  0  0  0
    3.6814    1.1136   -1.8768 C   0  0  0  0  0  0
    4.7078    1.9185   -2.1907 F   0  0  0  0  0  0
    5.9956   -0.2145   -2.0798 H   0  0  0  0  0  0
    5.7453   -0.4051   -0.3254 H   0  0  0  0  0  0
    5.4184   -1.7540   -1.4431 H   0  0  0  0  0  0
    3.0683   -2.0309   -0.7407 H   0  0  0  0  0  0
   -3.0211   -2.8529    1.1087 H   0  0  0  0  0  0
   -3.6785   -1.4174   -1.2568 H   0  0  0  0  0  0
   -4.8465   -1.8812    0.0188 H   0  0  0  0  0  0
   -3.9537    2.3433    1.9827 H   0  0  0  0  0  0
   -1.3487    0.2423    4.7250 H   0  0  0  0  0  0
   -1.3974   -1.7645    3.2692 H   0  0  0  0  0  0
    0.2934    1.1428   -1.6555 H   0  0  0  0  0  0
    1.1765    3.0896   -2.9543 H   0  0  0  0  0  0
    2.9116    3.3612   -3.0901 H   0  0  0  0  0  0
    2.0923    3.6735   -1.5410 H   0  0  0  0  0  0
  1  2  1  0  0  0
  1 26  1  0  0  0
  1 27  1  0  0  0
  1 28  1  0  0  0
  2  3  2  0  0  0
  2 24  1  0  0  0
  3  4  1  0  0  0
  3 29  1  0  0  0
  4  5  1  0  0  0
  4 21  2  0  0  0
  5  6  2  0  0  0
  5 20  1  0  0  0
  6  7  1  0  0  0
  7  8  1  0  0  0
  8  9  1  0  0  0
  8 20  2  0  0  0
  9 10  1  0  0  0
  9 19  1  0  0  0
  9 30  1  0  0  0
 10 11  1  0  0  0
 10 31  1  0  0  0
 10 32  1  0  0  0
 11 12  2  0  0  0
 11 13  1  0  0  0
 13 14  2  0  0  0
 13 19  1  0  0  0
 14 15  1  0  0  0
 14 33  1  0  0  0
 15 16  1  0  0  0
 15 17  2  0  0  0
 17 18  1  0  0  0
 17 34  1  0  0  0
 18 19  2  0  0  0
 18 35  1  0  0  0
 21 22  1  0  0  0
 21 36  1  0  0  0
 22 23  1  0  0  0
 22 24  2  0  0  0
 23 37  1  0  0  0
 23 38  1  0  0  0
 23 39  1  0  0  0
 24 25  1  0  0  0
M  END
> <energy>
62.2747

> <i_ionizer_Ion_state_n>
0

> <i_ionizer_Tot_Q>
0

> <s_ionizer_Ion_centers>


> <s_ionizer_Ion_types>


> <s_ionizer_Ion_ctrs_in>


> <r_ionizer_Ionization_penalty>
0

> <r_ionizer_Ionization_penalty_charging>
0

> <r_ionizer_Ionization_penalty_neutral>
0

$$$$
ZINC001211860231
                    3D
 Schrodinger Suite 2019-4.
 38 39  0  0  1  0            999 V2000
    5.0567   -1.0921   -1.7541 C   0  0  0  0  0  0
    4.0676   -0.6371   -0.7131 C   0  0  0  0  0  0
    3.7869    0.7388   -0.5740 C   0  0  0  0  0  0
    4.6208    1.9344   -1.5052 Cl  0  0  0  0  0  0
    2.8240    1.1979    0.3298 C   0  0  0  0  0  0
    2.1341    0.3019    1.1407 C   0  0  0  0  0  0
    1.0667    0.7639    1.9757 N   0  0  0  0  0  0
   -0.1214    1.2622    1.3653 C   0  0  0  0  0  0
   -0.5784    2.5538    1.6640 C   0  0  0  0  0  0
   -1.7236    3.0631    1.0316 C   0  0  0  0  0  0
   -2.4097    2.2804    0.1061 C   0  0  0  0  0  0
   -3.5120    2.7732   -0.4748 F   0  0  0  0  0  0
   -1.9756    0.9915   -0.1737 C   0  0  0  0  0  0
   -2.6581    0.1726   -1.1830 C   0  0  0  0  0  0
   -2.2496    0.2574   -2.3372 O   0  0  0  0  0  0
   -3.6502   -0.7108   -0.7705 N   0  0  0  0  0  0
   -4.1549   -1.6821   -1.7287 C   0  0  0  0  0  0
   -4.1183   -0.8554    0.6026 C   0  0  0  0  0  0
   -0.8381    0.4733    0.4564 C   0  0  0  0  0  0
    2.4386   -1.0607    1.0569 C   0  0  0  0  0  0
    1.7547   -1.9076    1.9009 O   0  0  0  0  0  0
    3.3751   -1.5335    0.1250 C   0  0  0  0  0  0
    3.6224   -3.2470    0.0444 Cl  0  0  0  0  0  0
    5.2197   -2.1691   -1.7485 H   0  0  0  0  0  0
    4.6976   -0.8306   -2.7554 H   0  0  0  0  0  0
    6.0300   -0.6230   -1.5833 H   0  0  0  0  0  0
    2.5999    2.2604    0.4007 H   0  0  0  0  0  0
    0.7967   -0.0566    2.5371 H   0  0  0  0  0  0
   -0.0333    3.1740    2.3727 H   0  0  0  0  0  0
   -2.0752    4.0675    1.2496 H   0  0  0  0  0  0
   -3.8143   -1.4767   -2.7446 H   0  0  0  0  0  0
   -5.2502   -1.6620   -1.7149 H   0  0  0  0  0  0
   -3.8035   -2.6777   -1.4371 H   0  0  0  0  0  0
   -3.8991    0.0250    1.2119 H   0  0  0  0  0  0
   -3.6393   -1.7310    1.0511 H   0  0  0  0  0  0
   -5.2026   -1.0019    0.5948 H   0  0  0  0  0  0
   -0.4993   -0.5310    0.2171 H   0  0  0  0  0  0
    2.1152   -2.8058    1.7638 H   0  0  0  0  0  0
  1  2  1  0  0  0
  1 24  1  0  0  0
  1 25  1  0  0  0
  1 26  1  0  0  0
  2  3  2  0  0  0
  2 22  1  0  0  0
  3  4  1  0  0  0
  3  5  1  0  0  0
  5  6  2  0  0  0
  5 27  1  0  0  0
  6  7  1  0  0  0
  6 20  1  0  0  0
  7  8  1  0  0  0
  7 28  1  0  0  0
  8  9  2  0  0  0
  8 19  1  0  0  0
  9 10  1  0  0  0
  9 29  1  0  0  0
 10 11  2  0  0  0
 10 30  1  0  0  0
 11 12  1  0  0  0
 11 13  1  0  0  0
 13 14  1  0  0  0
 13 19  2  0  0  0
 14 15  2  0  0  0
 14 16  1  0  0  0
 16 17  1  0  0  0
 16 18  1  0  0  0
 17 31  1  0  0  0
 17 32  1  0  0  0
 17 33  1  0  0  0
 18 34  1  0  0  0
 18 35  1  0  0  0
 18 36  1  0  0  0
 19 37  1  0  0  0
 20 21  1  0  0  0
 20 22  2  0  0  0
 21 38  1  0  0  0
 22 23  1  0  0  0
M  END
> <energy>
40.2917

> <i_ionizer_Ion_state_n>
0

> <i_ionizer_Tot_Q>
0

> <s_ionizer_Ion_centers>


> <s_ionizer_Ion_types>


> <s_ionizer_Ion_ctrs_in>


> <r_ionizer_Ionization_penalty>
0.00148639

> <r_ionizer_Ionization_penalty_charging>
0

> <r_ionizer_Ionization_penalty_neutral>
0.00148639

$$$$
ZINC001211860253
                    3D
 Schrodinger Suite 2019-4.
 38 42  0  0  1  0            999 V2000
    3.3268   -1.3877    2.7831 O   0  0  0  0  0  0
    3.1631   -1.5493    1.5835 C   0  0  0  0  0  0
    3.7893   -0.7448    0.4839 C   0  0  0  0  0  0
    3.0299   -1.1793   -0.7959 C   0  0  2  0  0  0
    2.0771   -0.1109   -1.1958 C   0  0  0  0  0  0
    0.8614    0.1110   -0.7561 N   0  0  0  0  0  0
    0.5794    1.3536   -1.2701 C   0  0  0  0  0  0
   -0.6612    2.0164   -0.8958 C   0  0  0  0  0  0
   -0.7756    3.4079   -0.8480 C   0  0  0  0  0  0
   -1.9450    4.0008   -0.3546 C   0  0  0  0  0  0
   -3.0313    3.2144    0.0800 C   0  0  0  0  0  0
   -4.2136    3.7633    0.5977 C   0  0  0  0  0  0
   -5.2223    2.9081    1.0230 C   0  0  0  0  0  0
   -5.1504    1.5623    0.9572 N   0  0  0  0  0  0
   -4.0092    1.0511    0.4562 C   0  0  0  0  0  0
   -2.9263    1.8111    0.0041 C   0  0  0  0  0  0
   -1.7475    1.2288   -0.4890 C   0  0  0  0  0  0
    1.5466    1.8565   -2.0518 N   0  0  0  0  0  0
    2.5350    0.8739   -2.0189 O   0  0  0  0  0  0
    2.3299   -2.4544   -0.3750 C   0  0  0  0  0  0
    1.6310   -3.3753   -1.1500 C   0  0  0  0  0  0
    1.0282   -4.4675   -0.5023 C   0  0  0  0  0  0
    1.1177   -4.6278    0.8923 C   0  0  0  0  0  0
    0.3925   -5.9988    1.6485 Cl  0  0  0  0  0  0
    1.7984   -3.6964    1.6664 C   0  0  0  0  0  0
    2.3774   -2.6272    1.0073 C   0  0  0  0  0  0
    4.8432   -1.0434    0.4293 H   0  0  0  0  0  0
    3.7253    0.3300    0.6895 H   0  0  0  0  0  0
    3.7472   -1.3764   -1.6013 H   0  0  0  0  0  0
    0.0561    4.0430   -1.1523 H   0  0  0  0  0  0
   -2.0031    5.0840   -0.2837 H   0  0  0  0  0  0
   -4.3503    4.8380    0.6809 H   0  0  0  0  0  0
   -6.1436    3.3003    1.4397 H   0  0  0  0  0  0
   -3.9817   -0.0328    0.4289 H   0  0  0  0  0  0
   -1.6518    0.1453   -0.5456 H   0  0  0  0  0  0
    1.5172   -3.2446   -2.2204 H   0  0  0  0  0  0
    0.4610   -5.1914   -1.0881 H   0  0  0  0  0  0
    1.8790   -3.7917    2.7430 H   0  0  0  0  0  0
  1  2  2  0  0  0
  2  3  1  0  0  0
  2 26  1  0  0  0
  3  4  1  0  0  0
  3 27  1  0  0  0
  3 28  1  0  0  0
  4  5  1  0  0  0
  4 20  1  0  0  0
  4 29  1  0  0  0
  5  6  2  0  0  0
  5 19  1  0  0  0
  6  7  1  0  0  0
  7  8  1  0  0  0
  7 18  2  0  0  0
  8  9  1  0  0  0
  8 17  2  0  0  0
  9 10  2  0  0  0
  9 30  1  0  0  0
 10 11  1  0  0  0
 10 31  1  0  0  0
 11 12  1  0  0  0
 11 16  2  0  0  0
 12 13  2  0  0  0
 12 32  1  0  0  0
 13 14  1  0  0  0
 13 33  1  0  0  0
 14 15  2  0  0  0
 15 16  1  0  0  0
 15 34  1  0  0  0
 16 17  1  0  0  0
 17 35  1  0  0  0
 18 19  1  0  0  0
 20 21  2  0  0  0
 20 26  1  0  0  0
 21 22  1  0  0  0
 21 36  1  0  0  0
 22 23  2  0  0  0
 22 37  1  0  0  0
 23 24  1  0  0  0
 23 25  1  0  0  0
 25 26  2  0  0  0
 25 38  1  0  0  0
M  END
> <energy>
73.5218

> <i_ionizer_Ion_state_n>
0

> <i_ionizer_Tot_Q>
0

> <s_ionizer_Ion_centers>


> <s_ionizer_Ion_types>


> <s_ionizer_Ion_ctrs_in>


> <r_ionizer_Ionization_penalty>
0.00741239

> <r_ionizer_Ionization_penalty_charging>
0

> <r_ionizer_Ionization_penalty_neutral>
0.00741239

$$$$
ZINC001211860255
                    3D
 Schrodinger Suite 2019-4.
 38 42  0  0  1  0            999 V2000
    3.5435   -2.1407    2.3730 O   0  0  0  0  0  0
    3.2493   -2.0828    1.1960 C   0  0  0  0  0  0
    2.6607   -3.1940    0.3608 C   0  0  0  0  0  0
    2.2084   -2.4978   -0.9369 C   0  0  1  0  0  0
    0.7396   -2.2490   -0.9328 C   0  0  0  0  0  0
    0.0507   -1.4668   -0.1366 N   0  0  0  0  0  0
   -1.1594   -1.3727   -0.7843 C   0  0  0  0  0  0
   -2.1411   -0.3767   -0.3784 C   0  0  0  0  0  0
   -3.2312   -0.0465   -1.1915 C   0  0  0  0  0  0
   -4.0832    1.0068   -0.8387 C   0  0  0  0  0  0
   -3.8721    1.7420    0.3411 C   0  0  0  0  0  0
   -4.6909    2.8183    0.7058 C   0  0  0  0  0  0
   -4.4241    3.4928    1.8875 C   0  0  0  0  0  0
   -3.4111    3.1767    2.7184 N   0  0  0  0  0  0
   -2.6239    2.1419    2.3490 C   0  0  0  0  0  0
   -2.7975    1.3936    1.1812 C   0  0  0  0  0  0
   -1.9456    0.3369    0.8156 C   0  0  0  0  0  0
   -1.2577   -2.1621   -1.8676 N   0  0  0  0  0  0
    0.0101   -2.7387   -1.9732 O   0  0  0  0  0  0
    2.9505   -1.1811   -0.9056 C   0  0  0  0  0  0
    3.0218   -0.2154   -1.9016 C   0  0  0  0  0  0
    3.6535    0.9984   -1.6056 C   0  0  0  0  0  0
    4.1967    1.2314   -0.3303 C   0  0  0  0  0  0
    4.9834    2.7309   -0.0121 Cl  0  0  0  0  0  0
    4.1060    0.2722    0.6746 C   0  0  0  0  0  0
    3.4825   -0.9180    0.3528 C   0  0  0  0  0  0
    1.8474   -3.6980    0.8918 H   0  0  0  0  0  0
    3.4620   -3.9121    0.1529 H   0  0  0  0  0  0
    2.5032   -3.0890   -1.8087 H   0  0  0  0  0  0
   -3.4127   -0.5856   -2.1189 H   0  0  0  0  0  0
   -4.9097    1.2619   -1.5015 H   0  0  0  0  0  0
   -5.5210    3.1306    0.0798 H   0  0  0  0  0  0
   -5.0379    4.3302    2.2076 H   0  0  0  0  0  0
   -1.8162    1.9322    3.0472 H   0  0  0  0  0  0
   -1.1053    0.0808    1.4615 H   0  0  0  0  0  0
    2.5665   -0.3687   -2.8777 H   0  0  0  0  0  0
    3.7048    1.7748   -2.3655 H   0  0  0  0  0  0
    4.5000    0.4432    1.6707 H   0  0  0  0  0  0
  1  2  2  0  0  0
  2  3  1  0  0  0
  2 26  1  0  0  0
  3  4  1  0  0  0
  3 27  1  0  0  0
  3 28  1  0  0  0
  4  5  1  0  0  0
  4 20  1  0  0  0
  4 29  1  0  0  0
  5  6  2  0  0  0
  5 19  1  0  0  0
  6  7  1  0  0  0
  7  8  1  0  0  0
  7 18  2  0  0  0
  8  9  1  0  0  0
  8 17  2  0  0  0
  9 10  2  0  0  0
  9 30  1  0  0  0
 10 11  1  0  0  0
 10 31  1  0  0  0
 11 12  1  0  0  0
 11 16  2  0  0  0
 12 13  2  0  0  0
 12 32  1  0  0  0
 13 14  1  0  0  0
 13 33  1  0  0  0
 14 15  2  0  0  0
 15 16  1  0  0  0
 15 34  1  0  0  0
 16 17  1  0  0  0
 17 35  1  0  0  0
 18 19  1  0  0  0
 20 21  2  0  0  0
 20 26  1  0  0  0
 21 22  1  0  0  0
 21 36  1  0  0  0
 22 23  2  0  0  0
 22 37  1  0  0  0
 23 24  1  0  0  0
 23 25  1  0  0  0
 25 26  2  0  0  0
 25 38  1  0  0  0
M  END
> <energy>
72.9592

> <i_ionizer_Ion_state_n>
0

> <i_ionizer_Tot_Q>
0

> <s_ionizer_Ion_centers>


> <s_ionizer_Ion_types>


> <s_ionizer_Ion_ctrs_in>


> <r_ionizer_Ionization_penalty>
0.00741239

> <r_ionizer_Ionization_penalty_charging>
0

> <r_ionizer_Ionization_penalty_neutral>
0.00741239

$$$$
ZINC001211860301
                    3D
 Schrodinger Suite 2019-4.
 38 39  0  0  1  0            999 V2000
    4.3950   -3.6344    0.3099 C   0  0  0  0  0  0
    4.9553   -2.4231   -0.2025 O   0  0  0  0  0  0
    4.0560   -1.3946   -0.1906 C   0  0  0  0  0  0
    4.3643   -0.2689    0.5616 C   0  0  0  0  0  0
    3.4871    0.8205    0.5679 C   0  0  0  0  0  0
    3.9190    2.1854    1.5530 Cl  0  0  0  0  0  0
    2.2896    0.8239   -0.1884 C   0  0  0  0  0  0
    1.4566    1.9739   -0.1390 N   0  0  0  0  0  0
    0.0623    2.1092    0.0141 C   0  0  0  0  0  0
   -0.5165    3.3454   -0.3210 C   0  0  0  0  0  0
   -1.8963    3.5527   -0.2296 C   0  0  0  0  0  0
   -2.7130    2.5185    0.1997 C   0  0  0  0  0  0
   -4.0349    2.7273    0.2776 F   0  0  0  0  0  0
   -2.1581    1.2903    0.5379 C   0  0  0  0  0  0
   -3.0056    0.2000    1.0383 C   0  0  0  0  0  0
   -2.9305   -0.0578    2.2370 O   0  0  0  0  0  0
   -3.8013   -0.5050    0.1338 N   0  0  0  0  0  0
   -3.6111   -0.4348   -1.3037 C   0  0  0  0  0  0
   -4.5123   -1.6723    0.6278 C   0  0  0  0  0  0
   -0.7741    1.0840    0.4622 C   0  0  0  0  0  0
    2.0252   -0.3236   -0.9632 C   0  0  0  0  0  0
    0.6635   -0.4501   -2.0342 Cl  0  0  0  0  0  0
    2.9053   -1.4169   -0.9688 C   0  0  0  0  0  0
    5.1751   -4.4067    0.2869 H   0  0  0  0  0  0
    3.5607   -3.9875   -0.3064 H   0  0  0  0  0  0
    4.0751   -3.5022    1.3520 H   0  0  0  0  0  0
    5.2834   -0.2463    1.1435 H   0  0  0  0  0  0
    1.9280    2.7559    0.3183 H   0  0  0  0  0  0
    0.1137    4.1601   -0.6677 H   0  0  0  0  0  0
   -2.3271    4.5151   -0.4869 H   0  0  0  0  0  0
   -4.5431   -0.7010   -1.8089 H   0  0  0  0  0  0
   -3.3219    0.5664   -1.6268 H   0  0  0  0  0  0
   -2.8194   -1.1356   -1.5893 H   0  0  0  0  0  0
   -5.4534   -1.7788    0.0795 H   0  0  0  0  0  0
   -4.7354   -1.5832    1.6968 H   0  0  0  0  0  0
   -3.8927   -2.5617    0.4697 H   0  0  0  0  0  0
   -0.3694    0.1275    0.7694 H   0  0  0  0  0  0
    2.7008   -2.2719   -1.6097 H   0  0  0  0  0  0
  1  2  1  0  0  0
  1 24  1  0  0  0
  1 25  1  0  0  0
  1 26  1  0  0  0
  2  3  1  0  0  0
  3  4  2  0  0  0
  3 23  1  0  0  0
  4  5  1  0  0  0
  4 27  1  0  0  0
  5  6  1  0  0  0
  5  7  2  0  0  0
  7  8  1  0  0  0
  7 21  1  0  0  0
  8  9  1  0  0  0
  8 28  1  0  0  0
  9 10  2  0  0  0
  9 20  1  0  0  0
 10 11  1  0  0  0
 10 29  1  0  0  0
 11 12  2  0  0  0
 11 30  1  0  0  0
 12 13  1  0  0  0
 12 14  1  0  0  0
 14 15  1  0  0  0
 14 20  2  0  0  0
 15 16  2  0  0  0
 15 17  1  0  0  0
 17 18  1  0  0  0
 17 19  1  0  0  0
 18 31  1  0  0  0
 18 32  1  0  0  0
 18 33  1  0  0  0
 19 34  1  0  0  0
 19 35  1  0  0  0
 19 36  1  0  0  0
 20 37  1  0  0  0
 21 22  1  0  0  0
 21 23  2  0  0  0
 23 38  1  0  0  0
M  END
> <energy>
53.248

> <i_ionizer_Ion_state_n>
0

> <i_ionizer_Tot_Q>
0

> <s_ionizer_Ion_centers>


> <s_ionizer_Ion_types>


> <s_ionizer_Ion_ctrs_in>


> <r_ionizer_Ionization_penalty>
0

> <r_ionizer_Ionization_penalty_charging>
0

> <r_ionizer_Ionization_penalty_neutral>
0

$$$$
ZINC001211860343
                    3D
 Schrodinger Suite 2019-4.
 40 41  0  0  1  0            999 V2000
    5.6316   -0.4168    0.1968 C   0  0  0  0  0  0
    4.2057   -0.1785    0.6144 C   0  0  0  0  0  0
    3.7394   -0.7257    1.8185 C   0  0  0  0  0  0
    2.4289   -0.4960    2.2465 C   0  0  0  0  0  0
    1.8718   -1.2910    3.8836 Br  0  0  0  0  0  0
    1.5440    0.2777    1.4791 C   0  0  0  0  0  0
    0.2509    0.6184    1.9713 N   0  0  0  0  0  0
   -0.8384    0.9914    1.1570 C   0  0  0  0  0  0
   -1.4098    2.2623    1.3178 C   0  0  0  0  0  0
   -2.4848    2.6652    0.5203 C   0  0  0  0  0  0
   -2.9976    1.7922   -0.4329 C   0  0  0  0  0  0
   -4.0304    2.1906   -1.1881 F   0  0  0  0  0  0
   -2.4551    0.5191   -0.5748 C   0  0  0  0  0  0
   -2.9526   -0.3735   -1.6285 C   0  0  0  0  0  0
   -2.5460   -0.1705   -2.7686 O   0  0  0  0  0  0
   -3.8004   -1.4197   -1.2722 N   0  0  0  0  0  0
   -4.2685   -1.6869    0.0784 C   0  0  0  0  0  0
   -4.1698   -2.3978   -2.2828 C   0  0  0  0  0  0
   -1.3809    0.1073    0.2205 C   0  0  0  0  0  0
    2.0234    0.8305    0.2810 C   0  0  0  0  0  0
    3.3312    0.5929   -0.1740 C   0  0  0  0  0  0
    3.7699    1.1898   -1.4843 C   0  0  0  0  0  0
    5.6679   -0.9817   -0.7395 H   0  0  0  0  0  0
    6.1514    0.5383    0.0673 H   0  0  0  0  0  0
    6.1826   -0.9887    0.9505 H   0  0  0  0  0  0
    4.4063   -1.3272    2.4300 H   0  0  0  0  0  0
   -0.0342   -0.0673    2.6717 H   0  0  0  0  0  0
   -0.9902    2.9532    2.0460 H   0  0  0  0  0  0
   -2.9131    3.6546    0.6290 H   0  0  0  0  0  0
   -4.2171   -0.8029    0.7173 H   0  0  0  0  0  0
   -5.3097   -2.0200    0.0353 H   0  0  0  0  0  0
   -3.6498   -2.4800    0.5083 H   0  0  0  0  0  0
   -3.7443   -3.3661   -2.0010 H   0  0  0  0  0  0
   -3.8058   -2.1253   -3.2769 H   0  0  0  0  0  0
   -5.2607   -2.4747   -2.3144 H   0  0  0  0  0  0
   -0.9513   -0.8806    0.0814 H   0  0  0  0  0  0
    1.3665    1.4640   -0.3122 H   0  0  0  0  0  0
    4.5621    1.9264   -1.3212 H   0  0  0  0  0  0
    4.1330    0.4039   -2.1529 H   0  0  0  0  0  0
    2.9441    1.6931   -1.9979 H   0  0  0  0  0  0
  1  2  1  0  0  0
  1 23  1  0  0  0
  1 24  1  0  0  0
  1 25  1  0  0  0
  2  3  2  0  0  0
  2 21  1  0  0  0
  3  4  1  0  0  0
  3 26  1  0  0  0
  4  5  1  0  0  0
  4  6  2  0  0  0
  6  7  1  0  0  0
  6 20  1  0  0  0
  7  8  1  0  0  0
  7 27  1  0  0  0
  8  9  2  0  0  0
  8 19  1  0  0  0
  9 10  1  0  0  0
  9 28  1  0  0  0
 10 11  2  0  0  0
 10 29  1  0  0  0
 11 12  1  0  0  0
 11 13  1  0  0  0
 13 14  1  0  0  0
 13 19  2  0  0  0
 14 15  2  0  0  0
 14 16  1  0  0  0
 16 17  1  0  0  0
 16 18  1  0  0  0
 17 30  1  0  0  0
 17 31  1  0  0  0
 17 32  1  0  0  0
 18 33  1  0  0  0
 18 34  1  0  0  0
 18 35  1  0  0  0
 19 36  1  0  0  0
 20 21  2  0  0  0
 20 37  1  0  0  0
 21 22  1  0  0  0
 22 38  1  0  0  0
 22 39  1  0  0  0
 22 40  1  0  0  0
M  END
> <energy>
47.646

> <i_ionizer_Ion_state_n>
0

> <i_ionizer_Tot_Q>
0

> <s_ionizer_Ion_centers>


> <s_ionizer_Ion_types>


> <s_ionizer_Ion_ctrs_in>


> <r_ionizer_Ionization_penalty>
0

> <r_ionizer_Ionization_penalty_charging>
0

> <r_ionizer_Ionization_penalty_neutral>
0

$$$$
ZINC001211860374
                    3D
 Schrodinger Suite 2019-4.
 41 42  0  0  1  0            999 V2000
    4.1154   -1.3340   -2.5838 C   0  0  0  0  0  0
    4.2523   -1.8555   -1.1596 C   0  0  0  0  0  0
    3.3259   -1.1256   -0.2099 C   0  0  0  0  0  0
    1.9900   -1.5423   -0.0395 C   0  0  0  0  0  0
    1.3447   -2.9348   -0.8437 Cl  0  0  0  0  0  0
    1.1005   -0.8273    0.7697 C   0  0  0  0  0  0
    1.5046    0.3359    1.4215 C   0  0  0  0  0  0
    0.5881    1.1348    2.1725 N   0  0  0  0  0  0
   -0.5911    1.6306    1.5531 C   0  0  0  0  0  0
   -0.5630    2.8518    0.8621 C   0  0  0  0  0  0
   -1.6631    3.2671    0.1076 C   0  0  0  0  0  0
   -2.7879    2.4504    0.0214 C   0  0  0  0  0  0
   -3.8091    2.8384   -0.7542 F   0  0  0  0  0  0
   -2.8183    1.2326    0.6905 C   0  0  0  0  0  0
   -3.9815    0.3466    0.5626 C   0  0  0  0  0  0
   -4.9690    0.6106    1.2423 O   0  0  0  0  0  0
   -3.8762   -0.7644   -0.2752 N   0  0  0  0  0  0
   -4.9443   -1.7497   -0.2586 C   0  0  0  0  0  0
   -2.6893   -1.1169   -1.0415 C   0  0  0  0  0  0
   -1.7350    0.8278    1.4753 C   0  0  0  0  0  0
    2.8361    0.7436    1.2871 C   0  0  0  0  0  0
    3.2008    1.9083    1.9276 O   0  0  0  0  0  0
    3.7397    0.0305    0.4814 C   0  0  0  0  0  0
    5.3488    0.6593    0.3337 Cl  0  0  0  0  0  0
    3.0830   -1.4052   -2.9440 H   0  0  0  0  0  0
    4.4201   -0.2835   -2.6535 H   0  0  0  0  0  0
    4.7488   -1.9142   -3.2630 H   0  0  0  0  0  0
    4.0538   -2.9325   -1.1347 H   0  0  0  0  0  0
    5.2946   -1.7734   -0.8362 H   0  0  0  0  0  0
    0.0784   -1.1762    0.8725 H   0  0  0  0  0  0
    1.1409    1.9200    2.5396 H   0  0  0  0  0  0
    0.3285    3.4758    0.8890 H   0  0  0  0  0  0
   -1.6400    4.2094   -0.4323 H   0  0  0  0  0  0
   -4.5777   -2.6503    0.2442 H   0  0  0  0  0  0
   -5.2177   -1.9938   -1.2891 H   0  0  0  0  0  0
   -5.8322   -1.3852    0.2638 H   0  0  0  0  0  0
   -2.0486   -0.2530   -1.2244 H   0  0  0  0  0  0
   -2.1280   -1.8735   -0.4839 H   0  0  0  0  0  0
   -2.9939   -1.5292   -2.0083 H   0  0  0  0  0  0
   -1.7695   -0.1223    2.0024 H   0  0  0  0  0  0
    4.1404    2.0691    1.7155 H   0  0  0  0  0  0
  1  2  1  0  0  0
  1 25  1  0  0  0
  1 26  1  0  0  0
  1 27  1  0  0  0
  2  3  1  0  0  0
  2 28  1  0  0  0
  2 29  1  0  0  0
  3  4  2  0  0  0
  3 23  1  0  0  0
  4  5  1  0  0  0
  4  6  1  0  0  0
  6  7  2  0  0  0
  6 30  1  0  0  0
  7  8  1  0  0  0
  7 21  1  0  0  0
  8  9  1  0  0  0
  8 31  1  0  0  0
  9 10  2  0  0  0
  9 20  1  0  0  0
 10 11  1  0  0  0
 10 32  1  0  0  0
 11 12  2  0  0  0
 11 33  1  0  0  0
 12 13  1  0  0  0
 12 14  1  0  0  0
 14 15  1  0  0  0
 14 20  2  0  0  0
 15 16  2  0  0  0
 15 17  1  0  0  0
 17 18  1  0  0  0
 17 19  1  0  0  0
 18 34  1  0  0  0
 18 35  1  0  0  0
 18 36  1  0  0  0
 19 37  1  0  0  0
 19 38  1  0  0  0
 19 39  1  0  0  0
 20 40  1  0  0  0
 21 22  1  0  0  0
 21 23  2  0  0  0
 22 41  1  0  0  0
 23 24  1  0  0  0
M  END
> <energy>
38.7482

> <i_ionizer_Ion_state_n>
0

> <i_ionizer_Tot_Q>
0

> <s_ionizer_Ion_centers>


> <s_ionizer_Ion_types>


> <s_ionizer_Ion_ctrs_in>


> <r_ionizer_Ionization_penalty>
0.00148639

> <r_ionizer_Ionization_penalty_charging>
0

> <r_ionizer_Ionization_penalty_neutral>
0.00148639

$$$$
ZINC001211860396
                    3D
 Schrodinger Suite 2019-4.
 33 36  0  0  1  0            999 V2000
    2.4897   -2.8469   -3.1903 O   0  0  0  0  0  0
    2.0977   -2.5737   -2.0701 C   0  0  0  0  0  0
    2.8994   -1.9129   -0.9774 C   0  0  0  0  0  0
    1.8495   -1.5263    0.0851 C   0  0  1  0  0  0
    1.4522   -0.0852    0.0793 C   0  0  0  0  0  0
    0.5976    0.5213    0.8732 N   0  0  0  0  0  0
    0.5175    1.7826    0.3334 C   0  0  0  0  0  0
   -0.4057    2.7848    0.8369 C   0  0  0  0  0  0
   -0.9707    3.7379   -0.0314 C   0  0  0  0  0  0
   -1.8859    4.6802    0.4492 C   0  0  0  0  0  0
   -2.2420    4.6707    1.7944 C   0  0  0  0  0  0
   -3.1220    5.5732    2.2486 F   0  0  0  0  0  0
   -1.6921    3.7340    2.6604 C   0  0  0  0  0  0
   -2.0423    3.7302    3.9552 F   0  0  0  0  0  0
   -0.7793    2.7980    2.1852 C   0  0  0  0  0  0
   -0.2531    1.9190    3.0515 F   0  0  0  0  0  0
    1.3086    1.9634   -0.7363 N   0  0  0  0  0  0
    1.9332    0.7292   -0.9027 O   0  0  0  0  0  0
    0.6660   -2.3916   -0.2774 C   0  0  0  0  0  0
   -0.4916   -2.6055    0.4583 C   0  0  0  0  0  0
   -1.5214   -3.3511   -0.1233 C   0  0  0  0  0  0
   -1.3848   -3.8652   -1.4237 C   0  0  0  0  0  0
   -2.6807   -4.7644   -2.1148 Cl  0  0  0  0  0  0
   -0.2207   -3.6585   -2.1601 C   0  0  0  0  0  0
    0.7812   -2.9226   -1.5573 C   0  0  0  0  0  0
    3.5861   -2.6698   -0.5798 H   0  0  0  0  0  0
    3.4825   -1.0719   -1.3617 H   0  0  0  0  0  0
    2.2232   -1.7883    1.0815 H   0  0  0  0  0  0
   -0.7125    3.7398   -1.0910 H   0  0  0  0  0  0
   -2.3259    5.4170   -0.2175 H   0  0  0  0  0  0
   -0.6154   -2.1771    1.4499 H   0  0  0  0  0  0
   -2.4382   -3.5197    0.4365 H   0  0  0  0  0  0
   -0.1003   -4.0508   -3.1642 H   0  0  0  0  0  0
  1  2  2  0  0  0
  2  3  1  0  0  0
  2 25  1  0  0  0
  3  4  1  0  0  0
  3 26  1  0  0  0
  3 27  1  0  0  0
  4  5  1  0  0  0
  4 19  1  0  0  0
  4 28  1  0  0  0
  5  6  2  0  0  0
  5 18  1  0  0  0
  6  7  1  0  0  0
  7  8  1  0  0  0
  7 17  2  0  0  0
  8  9  2  0  0  0
  8 15  1  0  0  0
  9 10  1  0  0  0
  9 29  1  0  0  0
 10 11  2  0  0  0
 10 30  1  0  0  0
 11 12  1  0  0  0
 11 13  1  0  0  0
 13 14  1  0  0  0
 13 15  2  0  0  0
 15 16  1  0  0  0
 17 18  1  0  0  0
 19 20  2  0  0  0
 19 25  1  0  0  0
 20 21  1  0  0  0
 20 31  1  0  0  0
 21 22  2  0  0  0
 21 32  1  0  0  0
 22 23  1  0  0  0
 22 24  1  0  0  0
 24 25  2  0  0  0
 24 33  1  0  0  0
M  END
> <energy>
59.6354

> <i_ionizer_Ion_state_n>
0

> <i_ionizer_Tot_Q>
0

> <s_ionizer_Ion_centers>


> <s_ionizer_Ion_types>


> <s_ionizer_Ion_ctrs_in>


> <r_ionizer_Ionization_penalty>
0

> <r_ionizer_Ionization_penalty_charging>
0

> <r_ionizer_Ionization_penalty_neutral>
0

$$$$
ZINC001211860398
                    3D
 Schrodinger Suite 2019-4.
 33 36  0  0  1  0            999 V2000
    5.2687    0.1323    0.8133 O   0  0  0  0  0  0
    4.1449   -0.0095    0.3648 C   0  0  0  0  0  0
    3.2408    1.0909   -0.1345 C   0  0  0  0  0  0
    1.9885    0.3645   -0.6641 C   0  0  2  0  0  0
    0.7023    0.8664   -0.1175 C   0  0  0  0  0  0
   -0.4715    0.8846   -0.6991 N   0  0  0  0  0  0
   -1.3055    1.3422    0.2944 C   0  0  0  0  0  0
   -2.7485    1.4575    0.1223 C   0  0  0  0  0  0
   -3.5848    1.6705    1.2353 C   0  0  0  0  0  0
   -4.9729    1.7354    1.0828 C   0  0  0  0  0  0
   -5.5303    1.5994   -0.1834 C   0  0  0  0  0  0
   -6.8596    1.6577   -0.3219 F   0  0  0  0  0  0
   -4.7205    1.4031   -1.2916 C   0  0  0  0  0  0
   -5.2701    1.2834   -2.5080 F   0  0  0  0  0  0
   -3.3399    1.3286   -1.1429 C   0  0  0  0  0  0
   -2.5931    1.1348   -2.2412 F   0  0  0  0  0  0
   -0.6645    1.6152    1.4448 N   0  0  0  0  0  0
    0.6622    1.2903    1.1754 O   0  0  0  0  0  0
    2.2308   -1.0883   -0.3358 C   0  0  0  0  0  0
    1.3907   -2.1704   -0.5662 C   0  0  0  0  0  0
    1.8284   -3.4464   -0.1957 C   0  0  0  0  0  0
    3.0955   -3.6256    0.3831 C   0  0  0  0  0  0
    3.5991   -5.2111    0.8271 Cl  0  0  0  0  0  0
    3.9461   -2.5447    0.6040 C   0  0  0  0  0  0
    3.4788   -1.2968    0.2381 C   0  0  0  0  0  0
    3.7446    1.6247   -0.9464 H   0  0  0  0  0  0
    3.0392    1.7895    0.6837 H   0  0  0  0  0  0
    1.9617    0.4651   -1.7584 H   0  0  0  0  0  0
   -3.1628    1.7778    2.2360 H   0  0  0  0  0  0
   -5.6181    1.8875    1.9425 H   0  0  0  0  0  0
    0.4113   -2.0375   -1.0216 H   0  0  0  0  0  0
    1.1780   -4.3019   -0.3619 H   0  0  0  0  0  0
    4.9307   -2.6691    1.0426 H   0  0  0  0  0  0
  1  2  2  0  0  0
  2  3  1  0  0  0
  2 25  1  0  0  0
  3  4  1  0  0  0
  3 26  1  0  0  0
  3 27  1  0  0  0
  4  5  1  0  0  0
  4 19  1  0  0  0
  4 28  1  0  0  0
  5  6  2  0  0  0
  5 18  1  0  0  0
  6  7  1  0  0  0
  7  8  1  0  0  0
  7 17  2  0  0  0
  8  9  2  0  0  0
  8 15  1  0  0  0
  9 10  1  0  0  0
  9 29  1  0  0  0
 10 11  2  0  0  0
 10 30  1  0  0  0
 11 12  1  0  0  0
 11 13  1  0  0  0
 13 14  1  0  0  0
 13 15  2  0  0  0
 15 16  1  0  0  0
 17 18  1  0  0  0
 19 20  2  0  0  0
 19 25  1  0  0  0
 20 21  1  0  0  0
 20 31  1  0  0  0
 21 22  2  0  0  0
 21 32  1  0  0  0
 22 23  1  0  0  0
 22 24  1  0  0  0
 24 25  2  0  0  0
 24 33  1  0  0  0
M  END
> <energy>
58.1229

> <i_ionizer_Ion_state_n>
0

> <i_ionizer_Tot_Q>
0

> <s_ionizer_Ion_centers>


> <s_ionizer_Ion_types>


> <s_ionizer_Ion_ctrs_in>


> <r_ionizer_Ionization_penalty>
0

> <r_ionizer_Ionization_penalty_charging>
0

> <r_ionizer_Ionization_penalty_neutral>
0

$$$$
ZINC001211860439
                    3D
 Schrodinger Suite 2019-4.
 51 53  0  0  1  0            999 V2000
    5.1041    3.3552   -1.3824 C   0  0  0  0  0  0
    4.5031    2.3417   -0.5319 N   0  0  0  0  0  0
    5.2670    1.1176   -0.3444 C   0  0  0  0  0  0
    3.1959    2.5315   -0.0897 C   0  0  0  0  0  0
    2.5463    3.5574   -0.2706 O   0  0  0  0  0  0
    2.5088    1.4117    0.5672 C   0  0  0  0  0  0
    2.0063    0.3672   -0.2178 C   0  0  0  0  0  0
    1.2715   -0.6703    0.3699 C   0  0  0  0  0  0
    0.7321   -1.6677   -0.4636 N   0  0  0  0  0  0
   -0.3082   -2.5859   -0.2092 C   0  0  0  0  0  0
   -0.0616   -3.9487   -0.4434 C   0  0  0  0  0  0
   -1.0114   -4.9213   -0.1180 C   0  0  0  0  0  0
   -2.2197   -4.5496    0.4642 C   0  0  0  0  0  0
   -2.4865   -3.2029    0.7003 C   0  0  0  0  0  0
   -1.5551   -2.2241    0.3372 C   0  0  0  0  0  0
   -1.9391   -0.9253    0.5734 O   0  0  0  0  0  0
   -2.0681   -0.1393   -0.6288 C   0  0  0  0  0  0
   -1.9008    1.3362   -0.2399 C   0  0  0  0  0  0
   -3.0535    1.8452    0.6256 C   0  0  0  0  0  0
   -4.4086    1.5928   -0.0288 C   0  0  0  0  0  0
   -4.5897    0.1273   -0.4096 C   0  0  0  0  0  0
   -3.4389   -0.3650   -1.2842 C   0  0  0  0  0  0
    1.0365   -0.6194    1.7525 C   0  0  0  0  0  0
    1.5522    0.4202    2.5360 C   0  0  0  0  0  0
    2.2833    1.4392    1.9376 C   0  0  0  0  0  0
    2.7721    2.4260    2.7011 F   0  0  0  0  0  0
    6.0875    3.6164   -0.9820 H   0  0  0  0  0  0
    4.4958    4.2607   -1.4409 H   0  0  0  0  0  0
    5.2190    2.9422   -2.3890 H   0  0  0  0  0  0
    5.1609    0.4995   -1.2406 H   0  0  0  0  0  0
    4.9246    0.5535    0.5260 H   0  0  0  0  0  0
    6.3205    1.3698   -0.1962 H   0  0  0  0  0  0
    2.1581    0.3901   -1.2937 H   0  0  0  0  0  0
    1.3622   -1.9565   -1.2035 H   0  0  0  0  0  0
    0.8901   -4.2673   -0.8600 H   0  0  0  0  0  0
   -0.7988   -5.9712   -0.3037 H   0  0  0  0  0  0
   -2.9538   -5.3051    0.7342 H   0  0  0  0  0  0
   -3.4284   -2.9070    1.1543 H   0  0  0  0  0  0
   -1.2877   -0.3840   -1.3583 H   0  0  0  0  0  0
   -1.8356    1.9458   -1.1494 H   0  0  0  0  0  0
   -0.9657    1.4760    0.3136 H   0  0  0  0  0  0
   -3.0239    1.3507    1.6047 H   0  0  0  0  0  0
   -2.9272    2.9184    0.8084 H   0  0  0  0  0  0
   -4.4992    2.2150   -0.9268 H   0  0  0  0  0  0
   -5.2106    1.9002    0.6512 H   0  0  0  0  0  0
   -4.6560   -0.4841    0.4988 H   0  0  0  0  0  0
   -5.5365    0.0012   -0.9476 H   0  0  0  0  0  0
   -3.4668    0.1676   -2.2432 H   0  0  0  0  0  0
   -3.5898   -1.4284   -1.5031 H   0  0  0  0  0  0
    0.4526   -1.3981    2.2374 H   0  0  0  0  0  0
    1.3705    0.4447    3.6065 H   0  0  0  0  0  0
  1  2  1  0  0  0
  1 27  1  0  0  0
  1 28  1  0  0  0
  1 29  1  0  0  0
  2  3  1  0  0  0
  2  4  1  0  0  0
  3 30  1  0  0  0
  3 31  1  0  0  0
  3 32  1  0  0  0
  4  5  2  0  0  0
  4  6  1  0  0  0
  6  7  2  0  0  0
  6 25  1  0  0  0
  7  8  1  0  0  0
  7 33  1  0  0  0
  8  9  1  0  0  0
  8 23  2  0  0  0
  9 10  1  0  0  0
  9 34  1  0  0  0
 10 11  2  0  0  0
 10 15  1  0  0  0
 11 12  1  0  0  0
 11 35  1  0  0  0
 12 13  2  0  0  0
 12 36  1  0  0  0
 13 14  1  0  0  0
 13 37  1  0  0  0
 14 15  2  0  0  0
 14 38  1  0  0  0
 15 16  1  0  0  0
 16 17  1  0  0  0
 17 18  1  0  0  0
 17 22  1  0  0  0
 17 39  1  0  0  0
 18 19  1  0  0  0
 18 40  1  0  0  0
 18 41  1  0  0  0
 19 20  1  0  0  0
 19 42  1  0  0  0
 19 43  1  0  0  0
 20 21  1  0  0  0
 20 44  1  0  0  0
 20 45  1  0  0  0
 21 22  1  0  0  0
 21 46  1  0  0  0
 21 47  1  0  0  0
 22 48  1  0  0  0
 22 49  1  0  0  0
 23 24  1  0  0  0
 23 50  1  0  0  0
 24 25  2  0  0  0
 24 51  1  0  0  0
 25 26  1  0  0  0
M  END
> <energy>
51.7129

> <i_ionizer_Ion_state_n>
0

> <i_ionizer_Tot_Q>
0

> <s_ionizer_Ion_centers>


> <s_ionizer_Ion_types>


> <s_ionizer_Ion_ctrs_in>


> <r_ionizer_Ionization_penalty>
0

> <r_ionizer_Ionization_penalty_charging>
0

> <r_ionizer_Ionization_penalty_neutral>
0

$$$$
ZINC001211860478
                    3D
 Schrodinger Suite 2019-4.
 36 39  0  0  1  0            999 V2000
   -3.9071    3.2171   -0.2768 C   0  0  0  0  0  0
   -3.8872    1.7576    0.0620 C   0  0  0  0  0  0
   -5.0314    1.1192    0.5496 C   0  0  0  0  0  0
   -4.9960   -0.2435    0.8252 C   0  0  0  0  0  0
   -6.0950   -0.8461    1.2956 F   0  0  0  0  0  0
   -3.8431   -0.9933    0.6174 C   0  0  0  0  0  0
   -2.6860   -0.3762    0.1192 C   0  0  0  0  0  0
   -1.4793   -1.1539   -0.1195 C   0  0  0  0  0  0
   -1.4618   -2.4956   -0.1995 N   0  0  0  0  0  0
   -0.1323   -2.7994   -0.4721 O   0  0  0  0  0  0
    0.5414   -1.6133   -0.4987 C   0  0  0  0  0  0
    1.9952   -1.6720   -0.8136 C   0  0  2  0  0  0
    2.7140   -2.8071   -0.0500 C   0  0  0  0  0  0
    3.9809   -2.1839    0.4708 C   0  0  0  0  0  0
    4.9006   -2.7681    1.0147 O   0  0  0  0  0  0
    3.9414   -0.7465    0.2597 C   0  0  0  0  0  0
    4.8587    0.2020    0.6754 C   0  0  0  0  0  0
    4.5814    1.5289    0.3621 C   0  0  0  0  0  0
    5.6708    2.7654    0.8573 Cl  0  0  0  0  0  0
    3.4212    1.8748   -0.3495 C   0  0  0  0  0  0
    2.5175    0.8889   -0.7642 C   0  0  0  0  0  0
    2.7820   -0.4364   -0.4434 C   0  0  0  0  0  0
   -0.2409   -0.5800   -0.2916 N   0  0  0  0  0  0
   -2.7272    0.9988   -0.1576 C   0  0  0  0  0  0
   -1.6535    1.6254   -0.6656 F   0  0  0  0  0  0
   -2.9860    3.7047    0.0581 H   0  0  0  0  0  0
   -4.0103    3.3479   -1.3578 H   0  0  0  0  0  0
   -4.7426    3.7258    0.2143 H   0  0  0  0  0  0
   -5.9540    1.6677    0.7178 H   0  0  0  0  0  0
   -3.8646   -2.0563    0.8454 H   0  0  0  0  0  0
    2.1124   -1.8360   -1.8926 H   0  0  0  0  0  0
    2.1386   -3.1826    0.8038 H   0  0  0  0  0  0
    2.9541   -3.6362   -0.7230 H   0  0  0  0  0  0
    5.7492   -0.0855    1.2244 H   0  0  0  0  0  0
    3.2169    2.9180   -0.5827 H   0  0  0  0  0  0
    1.6223    1.1696   -1.3145 H   0  0  0  0  0  0
  1  2  1  0  0  0
  1 26  1  0  0  0
  1 27  1  0  0  0
  1 28  1  0  0  0
  2  3  2  0  0  0
  2 24  1  0  0  0
  3  4  1  0  0  0
  3 29  1  0  0  0
  4  5  1  0  0  0
  4  6  2  0  0  0
  6  7  1  0  0  0
  6 30  1  0  0  0
  7  8  1  0  0  0
  7 24  2  0  0  0
  8  9  2  0  0  0
  8 23  1  0  0  0
  9 10  1  0  0  0
 10 11  1  0  0  0
 11 12  1  0  0  0
 11 23  2  0  0  0
 12 13  1  0  0  0
 12 22  1  0  0  0
 12 31  1  0  0  0
 13 14  1  0  0  0
 13 32  1  0  0  0
 13 33  1  0  0  0
 14 15  2  0  0  0
 14 16  1  0  0  0
 16 17  2  0  0  0
 16 22  1  0  0  0
 17 18  1  0  0  0
 17 34  1  0  0  0
 18 19  1  0  0  0
 18 20  2  0  0  0
 20 21  1  0  0  0
 20 35  1  0  0  0
 21 22  2  0  0  0
 21 36  1  0  0  0
 24 25  1  0  0  0
M  END
> <energy>
47.776

> <i_ionizer_Ion_state_n>
0

> <i_ionizer_Tot_Q>
0

> <s_ionizer_Ion_centers>


> <s_ionizer_Ion_types>


> <s_ionizer_Ion_ctrs_in>


> <r_ionizer_Ionization_penalty>
0

> <r_ionizer_Ionization_penalty_charging>
0

> <r_ionizer_Ionization_penalty_neutral>
0

$$$$
ZINC001211860479
                    3D
 Schrodinger Suite 2019-4.
 36 39  0  0  1  0            999 V2000
   -5.1974    0.3229   -0.8356 C   0  0  0  0  0  0
   -4.1358    0.8978    0.0530 C   0  0  0  0  0  0
   -4.2635    2.1971    0.5563 C   0  0  0  0  0  0
   -3.2951    2.7038    1.4176 C   0  0  0  0  0  0
   -3.4210    3.9518    1.8838 F   0  0  0  0  0  0
   -2.1929    1.9446    1.7910 C   0  0  0  0  0  0
   -2.0429    0.6451    1.2876 C   0  0  0  0  0  0
   -0.8466   -0.1106    1.5963 C   0  0  0  0  0  0
   -0.2951   -0.1641    2.8203 N   0  0  0  0  0  0
    0.9153   -0.8251    2.6064 O   0  0  0  0  0  0
    0.9811   -1.0850    1.2701 C   0  0  0  0  0  0
    2.2397   -1.6927    0.7591 C   0  0  1  0  0  0
    1.9389   -2.8840   -0.1758 C   0  0  0  0  0  0
    2.1626   -2.3391   -1.5629 C   0  0  0  0  0  0
    1.8677   -2.8834   -2.6121 O   0  0  0  0  0  0
    2.8868   -1.0803   -1.4744 C   0  0  0  0  0  0
    3.4346   -0.3317   -2.4974 C   0  0  0  0  0  0
    4.1247    0.8211   -2.1330 C   0  0  0  0  0  0
    4.8474    1.7959   -3.3524 Cl  0  0  0  0  0  0
    4.2502    1.1962   -0.7836 C   0  0  0  0  0  0
    3.6823    0.4141    0.2310 C   0  0  0  0  0  0
    2.9949   -0.7352   -0.1304 C   0  0  0  0  0  0
   -0.0846   -0.6952    0.6121 N   0  0  0  0  0  0
   -3.0268    0.1281    0.4350 C   0  0  0  0  0  0
   -2.9278   -1.1320   -0.0189 F   0  0  0  0  0  0
   -5.7269    1.1200   -1.3701 H   0  0  0  0  0  0
   -4.7625   -0.3427   -1.5894 H   0  0  0  0  0  0
   -5.9198   -0.2367   -0.2326 H   0  0  0  0  0  0
   -5.1063    2.8263    0.2814 H   0  0  0  0  0  0
   -1.4469    2.3816    2.4492 H   0  0  0  0  0  0
    2.8754   -2.0205    1.5899 H   0  0  0  0  0  0
    0.9243   -3.2778   -0.0696 H   0  0  0  0  0  0
    2.6676   -3.6882   -0.0180 H   0  0  0  0  0  0
    3.3280   -0.6392   -3.5332 H   0  0  0  0  0  0
    4.7936    2.1019   -0.5207 H   0  0  0  0  0  0
    3.7767    0.7155    1.2703 H   0  0  0  0  0  0
  1  2  1  0  0  0
  1 26  1  0  0  0
  1 27  1  0  0  0
  1 28  1  0  0  0
  2  3  2  0  0  0
  2 24  1  0  0  0
  3  4  1  0  0  0
  3 29  1  0  0  0
  4  5  1  0  0  0
  4  6  2  0  0  0
  6  7  1  0  0  0
  6 30  1  0  0  0
  7  8  1  0  0  0
  7 24  2  0  0  0
  8  9  2  0  0  0
  8 23  1  0  0  0
  9 10  1  0  0  0
 10 11  1  0  0  0
 11 12  1  0  0  0
 11 23  2  0  0  0
 12 13  1  0  0  0
 12 22  1  0  0  0
 12 31  1  0  0  0
 13 14  1  0  0  0
 13 32  1  0  0  0
 13 33  1  0  0  0
 14 15  2  0  0  0
 14 16  1  0  0  0
 16 17  2  0  0  0
 16 22  1  0  0  0
 17 18  1  0  0  0
 17 34  1  0  0  0
 18 19  1  0  0  0
 18 20  2  0  0  0
 20 21  1  0  0  0
 20 35  1  0  0  0
 21 22  2  0  0  0
 21 36  1  0  0  0
 24 25  1  0  0  0
M  END
> <energy>
48.5172

> <i_ionizer_Ion_state_n>
0

> <i_ionizer_Tot_Q>
0

> <s_ionizer_Ion_centers>


> <s_ionizer_Ion_types>


> <s_ionizer_Ion_ctrs_in>


> <r_ionizer_Ionization_penalty>
0

> <r_ionizer_Ionization_penalty_charging>
0

> <r_ionizer_Ionization_penalty_neutral>
0

$$$$
ZINC001211860503
                    3D
 Schrodinger Suite 2019-4.
 35 39  0  0  1  0            999 V2000
    3.3500    0.2906    2.9458 O   0  0  0  0  0  0
    3.1900   -0.0549    1.7886 C   0  0  0  0  0  0
    2.9246   -1.4589    1.2992 C   0  0  0  0  0  0
    2.6047   -1.2972   -0.2035 C   0  0  1  0  0  0
    1.1499   -1.4843   -0.4624 C   0  0  0  0  0  0
    0.1168   -0.9359    0.1332 N   0  0  0  0  0  0
   -0.9447   -1.4085   -0.6096 C   0  0  0  0  0  0
   -2.3159   -0.9816   -0.3486 C   0  0  0  0  0  0
   -3.3291   -1.2066   -1.2878 C   0  0  0  0  0  0
   -4.6377   -0.7524   -1.0629 C   0  0  0  0  0  0
   -4.9457   -0.0676    0.1289 C   0  0  0  0  0  0
   -6.1867    0.4420    0.4781 N   0  0  0  0  0  0
   -6.1072    1.0148    1.6569 C   0  0  0  0  0  0
   -4.5749    0.9845    2.4198 S   0  0  0  0  0  0
   -3.9286    0.1389    1.0649 C   0  0  0  0  0  0
   -2.6135   -0.3048    0.8462 C   0  0  0  0  0  0
   -0.5831   -2.2397   -1.6012 N   0  0  0  0  0  0
    0.8060   -2.2897   -1.5045 O   0  0  0  0  0  0
    3.0368    0.1149   -0.5101 C   0  0  0  0  0  0
    3.1116    0.7379   -1.7481 C   0  0  0  0  0  0
    3.4193    2.1040   -1.7886 C   0  0  0  0  0  0
    3.6436    2.8218   -0.6014 C   0  0  0  0  0  0
    3.9600    4.5123   -0.6878 Cl  0  0  0  0  0  0
    3.5966    2.1931    0.6402 C   0  0  0  0  0  0
    3.2979    0.8435    0.6466 C   0  0  0  0  0  0
    3.8402   -2.0450    1.4384 H   0  0  0  0  0  0
    2.1126   -1.9165    1.8731 H   0  0  0  0  0  0
    3.1961   -2.0107   -0.7897 H   0  0  0  0  0  0
   -3.1136   -1.7261   -2.2211 H   0  0  0  0  0  0
   -5.4169   -0.9172   -1.8009 H   0  0  0  0  0  0
   -6.9618    1.4790    2.1320 H   0  0  0  0  0  0
   -1.8438   -0.1199    1.5906 H   0  0  0  0  0  0
    2.9113    0.1954   -2.6695 H   0  0  0  0  0  0
    3.4593    2.6138   -2.7496 H   0  0  0  0  0  0
    3.7758    2.7307    1.5648 H   0  0  0  0  0  0
  1  2  2  0  0  0
  2  3  1  0  0  0
  2 25  1  0  0  0
  3  4  1  0  0  0
  3 26  1  0  0  0
  3 27  1  0  0  0
  4  5  1  0  0  0
  4 19  1  0  0  0
  4 28  1  0  0  0
  5  6  2  0  0  0
  5 18  1  0  0  0
  6  7  1  0  0  0
  7  8  1  0  0  0
  7 17  2  0  0  0
  8  9  2  0  0  0
  8 16  1  0  0  0
  9 10  1  0  0  0
  9 29  1  0  0  0
 10 11  2  0  0  0
 10 30  1  0  0  0
 11 12  1  0  0  0
 11 15  1  0  0  0
 12 13  2  0  0  0
 13 14  1  0  0  0
 13 31  1  0  0  0
 14 15  1  0  0  0
 15 16  2  0  0  0
 16 32  1  0  0  0
 17 18  1  0  0  0
 19 20  2  0  0  0
 19 25  1  0  0  0
 20 21  1  0  0  0
 20 33  1  0  0  0
 21 22  2  0  0  0
 21 34  1  0  0  0
 22 23  1  0  0  0
 22 24  1  0  0  0
 24 25  2  0  0  0
 24 35  1  0  0  0
M  END
> <energy>
55.4999

> <i_ionizer_Ion_state_n>
0

> <i_ionizer_Tot_Q>
0

> <s_ionizer_Ion_centers>


> <s_ionizer_Ion_types>


> <s_ionizer_Ion_ctrs_in>


> <r_ionizer_Ionization_penalty>
0

> <r_ionizer_Ionization_penalty_charging>
0

> <r_ionizer_Ionization_penalty_neutral>
0

$$$$
ZINC001211860504
                    3D
 Schrodinger Suite 2019-4.
 35 39  0  0  1  0            999 V2000
    3.2565   -2.0827   -2.2333 O   0  0  0  0  0  0
    3.0922   -1.6015   -1.1284 C   0  0  0  0  0  0
    2.6900   -2.3437    0.1233 C   0  0  0  0  0  0
    2.3741   -1.2300    1.1479 C   0  0  2  0  0  0
    0.9025   -1.0989    1.3296 C   0  0  0  0  0  0
    0.0037   -0.5756    0.5301 N   0  0  0  0  0  0
   -1.1730   -0.7836    1.2178 C   0  0  0  0  0  0
   -2.4603   -0.3545    0.6806 C   0  0  0  0  0  0
   -3.6640   -0.7611    1.2677 C   0  0  0  0  0  0
   -4.8977   -0.3739    0.7223 C   0  0  0  0  0  0
   -4.9358    0.4410   -0.4263 C   0  0  0  0  0  0
   -6.0788    0.8878   -1.0699 N   0  0  0  0  0  0
   -5.7374    1.6220   -2.1035 C   0  0  0  0  0  0
   -4.0602    1.8358   -2.3689 S   0  0  0  0  0  0
   -3.7286    0.8510   -0.9949 C   0  0  0  0  0  0
   -2.4869    0.4683   -0.4602 C   0  0  0  0  0  0
   -1.0071   -1.4126    2.3940 N   0  0  0  0  0  0
    0.3696   -1.6243    2.4675 O   0  0  0  0  0  0
    2.9919    0.0011    0.5316 C   0  0  0  0  0  0
    3.1847    1.2494    1.1053 C   0  0  0  0  0  0
    3.7296    2.2694    0.3140 C   0  0  0  0  0  0
    4.0595    2.0373   -1.0320 C   0  0  0  0  0  0
    4.7200    3.3187   -1.9740 Cl  0  0  0  0  0  0
    3.8651    0.7871   -1.6106 C   0  0  0  0  0  0
    3.3401   -0.2039   -0.8014 C   0  0  0  0  0  0
    1.8410   -3.0052   -0.0760 H   0  0  0  0  0  0
    3.5518   -2.9370    0.4532 H   0  0  0  0  0  0
    2.8582   -1.4573    2.1054 H   0  0  0  0  0  0
   -3.6617   -1.3916    2.1567 H   0  0  0  0  0  0
   -5.8308   -0.6988    1.1735 H   0  0  0  0  0  0
   -6.4732    2.0741   -2.7556 H   0  0  0  0  0  0
   -1.5655    0.8037   -0.9286 H   0  0  0  0  0  0
    2.9153    1.4479    2.1394 H   0  0  0  0  0  0
    3.8925    3.2542    0.7480 H   0  0  0  0  0  0
    4.1229    0.5869   -2.6445 H   0  0  0  0  0  0
  1  2  2  0  0  0
  2  3  1  0  0  0
  2 25  1  0  0  0
  3  4  1  0  0  0
  3 26  1  0  0  0
  3 27  1  0  0  0
  4  5  1  0  0  0
  4 19  1  0  0  0
  4 28  1  0  0  0
  5  6  2  0  0  0
  5 18  1  0  0  0
  6  7  1  0  0  0
  7  8  1  0  0  0
  7 17  2  0  0  0
  8  9  2  0  0  0
  8 16  1  0  0  0
  9 10  1  0  0  0
  9 29  1  0  0  0
 10 11  2  0  0  0
 10 30  1  0  0  0
 11 12  1  0  0  0
 11 15  1  0  0  0
 12 13  2  0  0  0
 13 14  1  0  0  0
 13 31  1  0  0  0
 14 15  1  0  0  0
 15 16  2  0  0  0
 16 32  1  0  0  0
 17 18  1  0  0  0
 19 20  2  0  0  0
 19 25  1  0  0  0
 20 21  1  0  0  0
 20 33  1  0  0  0
 21 22  2  0  0  0
 21 34  1  0  0  0
 22 23  1  0  0  0
 22 24  1  0  0  0
 24 25  2  0  0  0
 24 35  1  0  0  0
M  END
> <energy>
55.4154

> <i_ionizer_Ion_state_n>
0

> <i_ionizer_Tot_Q>
0

> <s_ionizer_Ion_centers>


> <s_ionizer_Ion_types>


> <s_ionizer_Ion_ctrs_in>


> <r_ionizer_Ionization_penalty>
0

> <r_ionizer_Ionization_penalty_charging>
0

> <r_ionizer_Ionization_penalty_neutral>
0

$$$$
ZINC001211860507
                    3D
 Schrodinger Suite 2019-4.
 38 42  0  0  1  0            999 V2000
    3.2632   -1.7914   -2.9463 O   0  0  0  0  0  0
    3.1575   -1.3970   -1.7990 C   0  0  0  0  0  0
    2.8412   -2.2383   -0.5855 C   0  0  0  0  0  0
    2.6682   -1.2186    0.5629 C   0  0  2  0  0  0
    1.2402   -1.1408    0.9803 C   0  0  0  0  0  0
    0.2565   -0.4078    0.5129 N   0  0  0  0  0  0
   -0.7837   -0.7456    1.3480 C   0  0  0  0  0  0
   -2.0626   -0.0647    1.2978 C   0  0  0  0  0  0
   -2.3519    0.8401    2.3331 C   0  0  0  0  0  0
   -3.5418    1.5602    2.3330 C   0  0  0  0  0  0
   -4.4533    1.3819    1.2954 C   0  0  0  0  0  0
   -4.1884    0.4717    0.2547 C   0  0  0  0  0  0
   -5.0986    0.2622   -0.7868 C   0  0  0  0  0  0
   -4.9177   -0.6032   -1.8097 N   0  0  0  0  0  0
   -3.7702   -1.3080   -1.8041 C   0  0  0  0  0  0
   -2.7933   -1.1776   -0.8261 C   0  0  0  0  0  0
   -2.9860   -0.2698    0.2380 C   0  0  0  0  0  0
   -0.4734   -1.6673    2.2723 N   0  0  0  0  0  0
    0.8681   -1.9470    2.0160 O   0  0  0  0  0  0
    3.1740    0.0763   -0.0224 C   0  0  0  0  0  0
    3.3742    1.2915    0.6194 C   0  0  0  0  0  0
    3.7441    2.3995   -0.1519 C   0  0  0  0  0  0
    3.9012    2.2847   -1.5440 C   0  0  0  0  0  0
    4.2986    3.6824   -2.4660 Cl  0  0  0  0  0  0
    3.7308    1.0602   -2.1852 C   0  0  0  0  0  0
    3.3785   -0.0175   -1.3945 C   0  0  0  0  0  0
    1.9422   -2.8388   -0.7664 H   0  0  0  0  0  0
    3.6923   -2.8979   -0.3854 H   0  0  0  0  0  0
    3.2901   -1.5066    1.4186 H   0  0  0  0  0  0
   -1.6399    0.9909    3.1437 H   0  0  0  0  0  0
   -3.7578    2.2577    3.1367 H   0  0  0  0  0  0
   -5.3783    1.9551    1.3025 H   0  0  0  0  0  0
   -6.0390    0.8059   -0.8296 H   0  0  0  0  0  0
   -3.6517   -2.0085   -2.6277 H   0  0  0  0  0  0
   -1.8993   -1.7896   -0.8979 H   0  0  0  0  0  0
    3.2296    1.4005    1.6893 H   0  0  0  0  0  0
    3.8825    3.3658    0.3297 H   0  0  0  0  0  0
    3.8538    0.9496   -3.2558 H   0  0  0  0  0  0
  1  2  2  0  0  0
  2  3  1  0  0  0
  2 26  1  0  0  0
  3  4  1  0  0  0
  3 27  1  0  0  0
  3 28  1  0  0  0
  4  5  1  0  0  0
  4 20  1  0  0  0
  4 29  1  0  0  0
  5  6  2  0  0  0
  5 19  1  0  0  0
  6  7  1  0  0  0
  7  8  1  0  0  0
  7 18  2  0  0  0
  8  9  2  0  0  0
  8 17  1  0  0  0
  9 10  1  0  0  0
  9 30  1  0  0  0
 10 11  2  0  0  0
 10 31  1  0  0  0
 11 12  1  0  0  0
 11 32  1  0  0  0
 12 13  2  0  0  0
 12 17  1  0  0  0
 13 14  1  0  0  0
 13 33  1  0  0  0
 14 15  2  0  0  0
 15 16  1  0  0  0
 15 34  1  0  0  0
 16 17  2  0  0  0
 16 35  1  0  0  0
 18 19  1  0  0  0
 20 21  2  0  0  0
 20 26  1  0  0  0
 21 22  1  0  0  0
 21 36  1  0  0  0
 22 23  2  0  0  0
 22 37  1  0  0  0
 23 24  1  0  0  0
 23 25  1  0  0  0
 25 26  2  0  0  0
 25 38  1  0  0  0
M  END
> <energy>
79.8702

> <i_ionizer_Ion_state_n>
0

> <i_ionizer_Tot_Q>
0

> <s_ionizer_Ion_centers>


> <s_ionizer_Ion_types>


> <s_ionizer_Ion_ctrs_in>


> <r_ionizer_Ionization_penalty>
0.00741239

> <r_ionizer_Ionization_penalty_charging>
0

> <r_ionizer_Ionization_penalty_neutral>
0.00741239

$$$$
ZINC001211860508
                    3D
 Schrodinger Suite 2019-4.
 38 42  0  0  1  0            999 V2000
    4.2949   -3.8015    0.4841 O   0  0  0  0  0  0
    3.4798   -2.9240    0.6916 C   0  0  0  0  0  0
    3.5177   -1.5214    0.1533 C   0  0  0  0  0  0
    2.4585   -0.7608    0.9851 C   0  0  1  0  0  0
    1.7585    0.2324    0.1349 C   0  0  0  0  0  0
    0.5088    0.3293   -0.2602 N   0  0  0  0  0  0
    0.5286    1.4727   -1.0395 C   0  0  0  0  0  0
   -0.6473    2.0177   -1.7123 C   0  0  0  0  0  0
   -0.4804    2.5386   -3.0120 C   0  0  0  0  0  0
   -1.5478    3.1006   -3.7069 C   0  0  0  0  0  0
   -2.8021    3.1447   -3.1108 C   0  0  0  0  0  0
   -2.9984    2.6455   -1.8122 C   0  0  0  0  0  0
   -4.2493    2.7124   -1.1944 C   0  0  0  0  0  0
   -4.5179    2.2744    0.0557 N   0  0  0  0  0  0
   -3.4893    1.7403    0.7335 C   0  0  0  0  0  0
   -2.2074    1.6230    0.2220 C   0  0  0  0  0  0
   -1.9267    2.0734   -1.0883 C   0  0  0  0  0  0
    1.7438    2.0371   -1.1357 N   0  0  0  0  0  0
    2.5505    1.2322   -0.3486 O   0  0  0  0  0  0
    1.6361   -1.8643    1.6065 C   0  0  0  0  0  0
    0.4648   -1.7778    2.3470 C   0  0  0  0  0  0
   -0.0425   -2.9460    2.9387 C   0  0  0  0  0  0
    0.6275   -4.1753    2.7996 C   0  0  0  0  0  0
   -0.0002   -5.5817    3.5684 Cl  0  0  0  0  0  0
    1.8007   -4.2657    2.0592 C   0  0  0  0  0  0
    2.2730   -3.0987    1.4870 C   0  0  0  0  0  0
    4.5093   -1.0782    0.2869 H   0  0  0  0  0  0
    3.2683   -1.5582   -0.9149 H   0  0  0  0  0  0
    2.9558   -0.2273    1.8074 H   0  0  0  0  0  0
    0.4979    2.5121   -3.4908 H   0  0  0  0  0  0
   -1.3988    3.5072   -4.7053 H   0  0  0  0  0  0
   -3.6311    3.5789   -3.6652 H   0  0  0  0  0  0
   -5.1056    3.1449   -1.7054 H   0  0  0  0  0  0
   -3.7225    1.3986    1.7364 H   0  0  0  0  0  0
   -1.4423    1.1908    0.8547 H   0  0  0  0  0  0
   -0.0453   -0.8299    2.4888 H   0  0  0  0  0  0
   -0.9570   -2.8957    3.5278 H   0  0  0  0  0  0
    2.3376   -5.2001    1.9334 H   0  0  0  0  0  0
  1  2  2  0  0  0
  2  3  1  0  0  0
  2 26  1  0  0  0
  3  4  1  0  0  0
  3 27  1  0  0  0
  3 28  1  0  0  0
  4  5  1  0  0  0
  4 20  1  0  0  0
  4 29  1  0  0  0
  5  6  2  0  0  0
  5 19  1  0  0  0
  6  7  1  0  0  0
  7  8  1  0  0  0
  7 18  2  0  0  0
  8  9  2  0  0  0
  8 17  1  0  0  0
  9 10  1  0  0  0
  9 30  1  0  0  0
 10 11  2  0  0  0
 10 31  1  0  0  0
 11 12  1  0  0  0
 11 32  1  0  0  0
 12 13  2  0  0  0
 12 17  1  0  0  0
 13 14  1  0  0  0
 13 33  1  0  0  0
 14 15  2  0  0  0
 15 16  1  0  0  0
 15 34  1  0  0  0
 16 17  2  0  0  0
 16 35  1  0  0  0
 18 19  1  0  0  0
 20 21  2  0  0  0
 20 26  1  0  0  0
 21 22  1  0  0  0
 21 36  1  0  0  0
 22 23  2  0  0  0
 22 37  1  0  0  0
 23 24  1  0  0  0
 23 25  1  0  0  0
 25 26  2  0  0  0
 25 38  1  0  0  0
M  END
> <energy>
79.7703

> <i_ionizer_Ion_state_n>
0

> <i_ionizer_Tot_Q>
0

> <s_ionizer_Ion_centers>


> <s_ionizer_Ion_types>


> <s_ionizer_Ion_ctrs_in>


> <r_ionizer_Ionization_penalty>
0.00741239

> <r_ionizer_Ionization_penalty_charging>
0

> <r_ionizer_Ionization_penalty_neutral>
0.00741239

$$$$
ZINC001211860527
                    3D
 Schrodinger Suite 2019-4.
 40 41  0  0  1  0            999 V2000
    3.7106    3.1511    1.6411 C   0  0  0  0  0  0
    3.2400    1.9142    0.9275 C   0  0  0  0  0  0
    2.8632    0.7917    1.6827 C   0  0  0  0  0  0
    2.3816   -0.3798    1.0738 C   0  0  0  0  0  0
    2.0211   -1.5539    1.9449 C   0  0  0  0  0  0
    2.2379   -0.4204   -0.3262 C   0  0  0  0  0  0
    1.5978   -1.5086   -0.9684 N   0  0  0  0  0  0
    0.2132   -1.8046   -0.8970 C   0  0  0  0  0  0
   -0.2407   -3.0282   -1.4142 C   0  0  0  0  0  0
   -1.5903   -3.3890   -1.3245 C   0  0  0  0  0  0
   -2.4993   -2.5210   -0.7268 C   0  0  0  0  0  0
   -3.7918   -2.8702   -0.6712 F   0  0  0  0  0  0
   -2.0641   -1.3056   -0.2170 C   0  0  0  0  0  0
   -3.0102   -0.3782    0.4166 C   0  0  0  0  0  0
   -3.2820   -0.5695    1.5999 O   0  0  0  0  0  0
   -3.4727    0.6989   -0.3357 N   0  0  0  0  0  0
   -3.2157    0.8894   -1.7565 C   0  0  0  0  0  0
   -4.1700    1.7792    0.3397 C   0  0  0  0  0  0
   -0.7108   -0.9518   -0.2792 C   0  0  0  0  0  0
    2.6362    0.6896   -1.0843 C   0  0  0  0  0  0
    3.1396    1.8394   -0.4678 C   0  0  0  0  0  0
    3.6626    3.2812   -1.5907 Br  0  0  0  0  0  0
    3.0177    3.9772    1.4536 H   0  0  0  0  0  0
    4.7163    3.4312    1.3157 H   0  0  0  0  0  0
    3.7527    2.9992    2.7247 H   0  0  0  0  0  0
    2.9459    0.8220    2.7679 H   0  0  0  0  0  0
    2.6020   -1.5420    2.8731 H   0  0  0  0  0  0
    2.2539   -2.5022    1.4512 H   0  0  0  0  0  0
    0.9606   -1.5305    2.2064 H   0  0  0  0  0  0
    1.9390   -1.6507   -1.9154 H   0  0  0  0  0  0
    0.4643   -3.7224   -1.8657 H   0  0  0  0  0  0
   -1.9339   -4.3416   -1.7155 H   0  0  0  0  0  0
   -4.1159    1.2948   -2.2292 H   0  0  0  0  0  0
   -2.3922    1.5993   -1.8715 H   0  0  0  0  0  0
   -2.9605   -0.0460   -2.2558 H   0  0  0  0  0  0
   -5.1610    1.8960   -0.1077 H   0  0  0  0  0  0
   -4.2799    1.5971    1.4110 H   0  0  0  0  0  0
   -3.5976    2.7017    0.2002 H   0  0  0  0  0  0
   -0.3945   -0.0053    0.1548 H   0  0  0  0  0  0
    2.5270    0.6680   -2.1641 H   0  0  0  0  0  0
  1  2  1  0  0  0
  1 23  1  0  0  0
  1 24  1  0  0  0
  1 25  1  0  0  0
  2  3  2  0  0  0
  2 21  1  0  0  0
  3  4  1  0  0  0
  3 26  1  0  0  0
  4  5  1  0  0  0
  4  6  2  0  0  0
  5 27  1  0  0  0
  5 28  1  0  0  0
  5 29  1  0  0  0
  6  7  1  0  0  0
  6 20  1  0  0  0
  7  8  1  0  0  0
  7 30  1  0  0  0
  8  9  2  0  0  0
  8 19  1  0  0  0
  9 10  1  0  0  0
  9 31  1  0  0  0
 10 11  2  0  0  0
 10 32  1  0  0  0
 11 12  1  0  0  0
 11 13  1  0  0  0
 13 14  1  0  0  0
 13 19  2  0  0  0
 14 15  2  0  0  0
 14 16  1  0  0  0
 16 17  1  0  0  0
 16 18  1  0  0  0
 17 33  1  0  0  0
 17 34  1  0  0  0
 17 35  1  0  0  0
 18 36  1  0  0  0
 18 37  1  0  0  0
 18 38  1  0  0  0
 19 39  1  0  0  0
 20 21  2  0  0  0
 20 40  1  0  0  0
 21 22  1  0  0  0
M  END
> <energy>
34.6619

> <i_ionizer_Ion_state_n>
0

> <i_ionizer_Tot_Q>
0

> <s_ionizer_Ion_centers>


> <s_ionizer_Ion_types>


> <s_ionizer_Ion_ctrs_in>


> <r_ionizer_Ionization_penalty>
0

> <r_ionizer_Ionization_penalty_charging>
0

> <r_ionizer_Ionization_penalty_neutral>
0

$$$$
ZINC001211860585
                    3D
 Schrodinger Suite 2019-4.
 33 36  0  0  1  0            999 V2000
    4.8562   -1.7709   -1.4176 O   0  0  0  0  0  0
    3.7984   -1.1823   -1.2714 C   0  0  0  0  0  0
    2.4481   -1.6390   -1.7653 C   0  0  0  0  0  0
    1.4992   -0.4748   -1.4396 C   0  0  1  0  0  0
    0.2660   -0.8886   -0.7174 C   0  0  0  0  0  0
   -0.9614   -0.4506   -0.8835 N   0  0  0  0  0  0
   -1.6125   -0.9663    0.2142 C   0  0  0  0  0  0
   -2.9885   -0.5994    0.5103 C   0  0  0  0  0  0
   -3.8868   -0.3864   -0.5446 C   0  0  0  0  0  0
   -5.1825    0.0454   -0.2861 C   0  0  0  0  0  0
   -6.0189    0.2473   -1.3136 F   0  0  0  0  0  0
   -5.5973    0.2802    1.0182 C   0  0  0  0  0  0
   -6.8365    0.7287    1.2612 F   0  0  0  0  0  0
   -4.7149    0.0630    2.0698 C   0  0  0  0  0  0
   -5.1040    0.3053    3.3298 F   0  0  0  0  0  0
   -3.4170   -0.3864    1.8288 C   0  0  0  0  0  0
   -0.8472   -1.7486    0.9870 N   0  0  0  0  0  0
    0.4028   -1.7008    0.3734 O   0  0  0  0  0  0
    2.3424    0.4860   -0.6315 C   0  0  0  0  0  0
    1.9476    1.6582    0.0037 C   0  0  0  0  0  0
    2.9075    2.3913    0.7126 C   0  0  0  0  0  0
    4.2410    1.9551    0.7656 C   0  0  0  0  0  0
    5.3946    2.8792    1.6527 Cl  0  0  0  0  0  0
    4.6411    0.7876    0.1262 C   0  0  0  0  0  0
    3.6684    0.0787   -0.5569 C   0  0  0  0  0  0
    2.4973   -1.8030   -2.8487 H   0  0  0  0  0  0
    2.1859   -2.5832   -1.2739 H   0  0  0  0  0  0
    1.2094    0.0227   -2.3718 H   0  0  0  0  0  0
   -3.5824   -0.5479   -1.5742 H   0  0  0  0  0  0
   -2.7470   -0.5335    2.6694 H   0  0  0  0  0  0
    0.9180    2.0031   -0.0280 H   0  0  0  0  0  0
    2.6081    3.2973    1.2360 H   0  0  0  0  0  0
    5.6652    0.4322    0.1652 H   0  0  0  0  0  0
  1  2  2  0  0  0
  2  3  1  0  0  0
  2 25  1  0  0  0
  3  4  1  0  0  0
  3 26  1  0  0  0
  3 27  1  0  0  0
  4  5  1  0  0  0
  4 19  1  0  0  0
  4 28  1  0  0  0
  5  6  2  0  0  0
  5 18  1  0  0  0
  6  7  1  0  0  0
  7  8  1  0  0  0
  7 17  2  0  0  0
  8  9  2  0  0  0
  8 16  1  0  0  0
  9 10  1  0  0  0
  9 29  1  0  0  0
 10 11  1  0  0  0
 10 12  2  0  0  0
 12 13  1  0  0  0
 12 14  1  0  0  0
 14 15  1  0  0  0
 14 16  2  0  0  0
 16 30  1  0  0  0
 17 18  1  0  0  0
 19 20  2  0  0  0
 19 25  1  0  0  0
 20 21  1  0  0  0
 20 31  1  0  0  0
 21 22  2  0  0  0
 21 32  1  0  0  0
 22 23  1  0  0  0
 22 24  1  0  0  0
 24 25  2  0  0  0
 24 33  1  0  0  0
M  END
> <energy>
52.2945

> <i_ionizer_Ion_state_n>
0

> <i_ionizer_Tot_Q>
0

> <s_ionizer_Ion_centers>


> <s_ionizer_Ion_types>


> <s_ionizer_Ion_ctrs_in>


> <r_ionizer_Ionization_penalty>
0

> <r_ionizer_Ionization_penalty_charging>
0

> <r_ionizer_Ionization_penalty_neutral>
0

$$$$
ZINC001211860587
                    3D
 Schrodinger Suite 2019-4.
 33 36  0  0  1  0            999 V2000
    3.8816   -0.3687   -2.2777 O   0  0  0  0  0  0
    3.3098   -0.3172   -1.2029 C   0  0  0  0  0  0
    2.7737   -1.4906   -0.4203 C   0  0  0  0  0  0
    2.1353   -0.8702    0.8391 C   0  0  2  0  0  0
    0.6672   -1.1047    0.8855 C   0  0  0  0  0  0
   -0.2407   -0.9840   -0.0578 N   0  0  0  0  0  0
   -1.4129   -1.1929    0.6327 C   0  0  0  0  0  0
   -2.7141   -1.0467    0.0015 C   0  0  0  0  0  0
   -3.8382   -0.7064    0.7682 C   0  0  0  0  0  0
   -5.0741   -0.5215    0.1526 C   0  0  0  0  0  0
   -6.1325   -0.1844    0.9019 F   0  0  0  0  0  0
   -5.2128   -0.6822   -1.2184 C   0  0  0  0  0  0
   -6.4037   -0.4946   -1.8037 F   0  0  0  0  0  0
   -4.1059   -1.0368   -1.9788 C   0  0  0  0  0  0
   -4.2301   -1.2212   -3.3003 F   0  0  0  0  0  0
   -2.8564   -1.2109   -1.3846 C   0  0  0  0  0  0
   -1.2387   -1.4752    1.9335 N   0  0  0  0  0  0
    0.1417   -1.4224    2.1026 O   0  0  0  0  0  0
    2.4578    0.5975    0.7333 C   0  0  0  0  0  0
    2.1559    1.6049    1.6403 C   0  0  0  0  0  0
    2.4837    2.9230    1.3108 C   0  0  0  0  0  0
    3.1151    3.2180    0.0926 C   0  0  0  0  0  0
    3.5063    4.8541   -0.2779 Cl  0  0  0  0  0  0
    3.4298    2.2097   -0.8178 C   0  0  0  0  0  0
    3.0917    0.9158   -0.4611 C   0  0  0  0  0  0
    2.0639   -2.0520   -1.0339 H   0  0  0  0  0  0
    3.6061   -2.1447   -0.1402 H   0  0  0  0  0  0
    2.6117   -1.2901    1.7332 H   0  0  0  0  0  0
   -3.7664   -0.5659    1.8444 H   0  0  0  0  0  0
   -2.0080   -1.4754   -2.0121 H   0  0  0  0  0  0
    1.6553    1.3888    2.5800 H   0  0  0  0  0  0
    2.2380    3.7255    2.0029 H   0  0  0  0  0  0
    3.9099    2.4214   -1.7675 H   0  0  0  0  0  0
  1  2  2  0  0  0
  2  3  1  0  0  0
  2 25  1  0  0  0
  3  4  1  0  0  0
  3 26  1  0  0  0
  3 27  1  0  0  0
  4  5  1  0  0  0
  4 19  1  0  0  0
  4 28  1  0  0  0
  5  6  2  0  0  0
  5 18  1  0  0  0
  6  7  1  0  0  0
  7  8  1  0  0  0
  7 17  2  0  0  0
  8  9  2  0  0  0
  8 16  1  0  0  0
  9 10  1  0  0  0
  9 29  1  0  0  0
 10 11  1  0  0  0
 10 12  2  0  0  0
 12 13  1  0  0  0
 12 14  1  0  0  0
 14 15  1  0  0  0
 14 16  2  0  0  0
 16 30  1  0  0  0
 17 18  1  0  0  0
 19 20  2  0  0  0
 19 25  1  0  0  0
 20 21  1  0  0  0
 20 31  1  0  0  0
 21 22  2  0  0  0
 21 32  1  0  0  0
 22 23  1  0  0  0
 22 24  1  0  0  0
 24 25  2  0  0  0
 24 33  1  0  0  0
M  END
> <energy>
49.7687

> <i_ionizer_Ion_state_n>
0

> <i_ionizer_Tot_Q>
0

> <s_ionizer_Ion_centers>


> <s_ionizer_Ion_types>


> <s_ionizer_Ion_ctrs_in>


> <r_ionizer_Ionization_penalty>
0

> <r_ionizer_Ionization_penalty_charging>
0

> <r_ionizer_Ionization_penalty_neutral>
0

$$$$
ZINC001211860654
                    3D
 Schrodinger Suite 2019-4.
 48 51  0  0  1  0            999 V2000
    5.0229   -2.3545   -1.4309 C   0  0  0  0  0  0
    3.7487   -1.9604   -0.8458 N   0  0  0  0  0  0
    2.6795   -2.9516   -0.9061 C   0  0  0  0  0  0
    3.6883   -0.7839   -0.0953 C   0  0  0  0  0  0
    4.5752    0.0624   -0.0448 O   0  0  0  0  0  0
    2.4649   -0.5319    0.6802 C   0  0  0  0  0  0
    1.3913    0.1720    0.1169 C   0  0  0  0  0  0
    0.2218    0.3217    0.8719 C   0  0  0  0  0  0
   -0.8975    1.0042    0.3244 N   0  0  0  0  0  0
   -0.8677    2.2847   -0.2237 C   0  0  0  0  0  0
    0.1749    3.2175   -0.3683 C   0  0  0  0  0  0
   -0.1088    4.4392   -0.9911 C   0  0  0  0  0  0
   -1.3876    4.7471   -1.4504 C   0  0  0  0  0  0
   -1.6508    6.0036   -2.0114 N   0  0  0  0  0  0
   -2.4359    3.8707   -1.1606 C   0  0  0  0  0  0
   -2.1738    2.6140   -0.5861 C   0  0  0  0  0  0
   -2.9950    1.5021   -0.2761 C   0  0  0  0  0  0
   -2.1915    0.5002    0.2358 C   0  0  0  0  0  0
   -2.5605   -0.8874    0.5005 C   0  0  0  0  0  0
   -3.1023   -1.2543    1.7372 C   0  0  0  0  0  0
   -3.4299   -2.5882    1.9927 C   0  0  0  0  0  0
   -3.2478   -3.5535    1.0035 C   0  0  0  0  0  0
   -2.7403   -3.1903   -0.2437 C   0  0  0  0  0  0
   -2.3902   -1.8632   -0.4905 C   0  0  0  0  0  0
    0.1442   -0.1868    2.1774 C   0  0  0  0  0  0
    1.2426   -0.8470    2.7383 C   0  0  0  0  0  0
    2.3956   -1.0234    1.9811 C   0  0  0  0  0  0
    3.4345   -1.6726    2.5224 F   0  0  0  0  0  0
    5.3913   -3.2383   -0.9026 H   0  0  0  0  0  0
    5.7826   -1.5702   -1.3695 H   0  0  0  0  0  0
    4.8691   -2.6130   -2.4830 H   0  0  0  0  0  0
    2.8625   -3.7077   -0.1382 H   0  0  0  0  0  0
    2.6749   -3.4198   -1.8961 H   0  0  0  0  0  0
    1.6938   -2.5101   -0.7353 H   0  0  0  0  0  0
    1.4644    0.5552   -0.9006 H   0  0  0  0  0  0
    1.1812    3.0101   -0.0083 H   0  0  0  0  0  0
    0.7025    5.1561   -1.1159 H   0  0  0  0  0  0
   -0.8647    6.3740   -2.5411 H   0  0  0  0  0  0
   -2.5198    6.0396   -2.5378 H   0  0  0  0  0  0
   -3.4577    4.1363   -1.4105 H   0  0  0  0  0  0
   -4.0590    1.4290   -0.4706 H   0  0  0  0  0  0
   -3.2499   -0.5075    2.5124 H   0  0  0  0  0  0
   -3.8302   -2.8639    2.9661 H   0  0  0  0  0  0
   -3.5186   -4.5872    1.2026 H   0  0  0  0  0  0
   -2.6162   -3.9404   -1.0187 H   0  0  0  0  0  0
   -1.9882   -1.5960   -1.4665 H   0  0  0  0  0  0
   -0.7382   -0.0294    2.7940 H   0  0  0  0  0  0
    1.2152   -1.2073    3.7623 H   0  0  0  0  0  0
  1  2  1  0  0  0
  1 29  1  0  0  0
  1 30  1  0  0  0
  1 31  1  0  0  0
  2  3  1  0  0  0
  2  4  1  0  0  0
  3 32  1  0  0  0
  3 33  1  0  0  0
  3 34  1  0  0  0
  4  5  2  0  0  0
  4  6  1  0  0  0
  6  7  2  0  0  0
  6 27  1  0  0  0
  7  8  1  0  0  0
  7 35  1  0  0  0
  8  9  1  0  0  0
  8 25  2  0  0  0
  9 10  1  0  0  0
  9 18  1  0  0  0
 10 11  2  0  0  0
 10 16  1  0  0  0
 11 12  1  0  0  0
 11 36  1  0  0  0
 12 13  2  0  0  0
 12 37  1  0  0  0
 13 14  1  0  0  0
 13 15  1  0  0  0
 14 38  1  0  0  0
 14 39  1  0  0  0
 15 16  2  0  0  0
 15 40  1  0  0  0
 16 17  1  0  0  0
 17 18  2  0  0  0
 17 41  1  0  0  0
 18 19  1  0  0  0
 19 20  2  0  0  0
 19 24  1  0  0  0
 20 21  1  0  0  0
 20 42  1  0  0  0
 21 22  2  0  0  0
 21 43  1  0  0  0
 22 23  1  0  0  0
 22 44  1  0  0  0
 23 24  2  0  0  0
 23 45  1  0  0  0
 24 46  1  0  0  0
 25 26  1  0  0  0
 25 47  1  0  0  0
 26 27  2  0  0  0
 26 48  1  0  0  0
 27 28  1  0  0  0
M  END
> <energy>
78.1606

> <i_ionizer_Ion_state_n>
0

> <i_ionizer_Tot_Q>
0

> <s_ionizer_Ion_centers>


> <s_ionizer_Ion_types>


> <s_ionizer_Ion_ctrs_in>


> <r_ionizer_Ionization_penalty>
0.000745426

> <r_ionizer_Ionization_penalty_charging>
0

> <r_ionizer_Ionization_penalty_neutral>
0.000745426

$$$$
ZINC001211860673
                    3D
 Schrodinger Suite 2019-4.
 47 49  0  0  1  0            999 V2000
    3.9111    2.3676    0.2298 C   0  0  0  0  0  0
    4.7479    1.2009   -0.0087 N   0  0  0  0  0  0
    5.9685    1.4151   -0.7699 C   0  0  0  0  0  0
    4.3954   -0.1022    0.3378 C   0  0  0  0  0  0
    5.1095   -1.0834    0.1624 O   0  0  0  0  0  0
    3.0398   -0.3431    0.8534 C   0  0  0  0  0  0
    1.9696   -0.3505   -0.0503 C   0  0  0  0  0  0
    0.6869   -0.7022    0.3847 C   0  0  0  0  0  0
   -0.3851   -0.7213   -0.5450 N   0  0  0  0  0  0
   -1.3528   -1.7615   -0.5600 C   0  0  0  0  0  0
   -1.0239   -2.9908   -1.1542 C   0  0  0  0  0  0
   -1.9272   -4.0536   -1.1293 C   0  0  0  0  0  0
   -3.1619   -3.9103   -0.4964 C   0  0  0  0  0  0
   -3.4906   -2.7025    0.1217 C   0  0  0  0  0  0
   -2.5980   -1.6292    0.0765 C   0  0  0  0  0  0
   -2.9592   -0.4736    0.7359 O   0  0  0  0  0  0
   -3.3006    0.6074   -0.0592 C   0  0  0  0  0  0
   -4.0945    0.4714   -1.2046 C   0  0  0  0  0  0
   -4.4401    1.5957   -1.9518 C   0  0  0  0  0  0
   -3.9897    2.8540   -1.5594 C   0  0  0  0  0  0
   -3.2011    2.9928   -0.4129 C   0  0  0  0  0  0
   -2.8966    1.8819    0.3830 C   0  0  0  0  0  0
   -2.0238    2.0259    1.4723 N   0  0  0  0  0  0
    0.4901   -0.9931    1.7445 C   0  0  0  0  0  0
    1.5615   -0.9713    2.6449 C   0  0  0  0  0  0
    2.8371   -0.6544    2.1924 C   0  0  0  0  0  0
    3.8509   -0.6366    3.0700 F   0  0  0  0  0  0
    3.3417    2.5820   -0.6793 H   0  0  0  0  0  0
    4.5547    3.2155    0.4791 H   0  0  0  0  0  0
    3.2158    2.2098    1.0580 H   0  0  0  0  0  0
    6.5657    0.5033   -0.8738 H   0  0  0  0  0  0
    5.7011    1.7698   -1.7699 H   0  0  0  0  0  0
    6.5746    2.1721   -0.2628 H   0  0  0  0  0  0
    2.1593   -0.1227   -1.0970 H   0  0  0  0  0  0
   -0.0212   -0.6081   -1.4892 H   0  0  0  0  0  0
   -0.0491   -3.1281   -1.6206 H   0  0  0  0  0  0
   -1.6591   -4.9993   -1.5924 H   0  0  0  0  0  0
   -3.8596   -4.7435   -0.4717 H   0  0  0  0  0  0
   -4.4403   -2.5953    0.6365 H   0  0  0  0  0  0
   -4.4468   -0.5044   -1.5264 H   0  0  0  0  0  0
   -5.0528    1.4859   -2.8412 H   0  0  0  0  0  0
   -4.2392    3.7287   -2.1553 H   0  0  0  0  0  0
   -2.8271    3.9794   -0.1456 H   0  0  0  0  0  0
   -2.0362    2.9322    1.9185 H   0  0  0  0  0  0
   -2.1058    1.2500    2.1232 H   0  0  0  0  0  0
   -0.5018   -1.2501    2.1099 H   0  0  0  0  0  0
    1.4027   -1.2102    3.6923 H   0  0  0  0  0  0
  1  2  1  0  0  0
  1 28  1  0  0  0
  1 29  1  0  0  0
  1 30  1  0  0  0
  2  3  1  0  0  0
  2  4  1  0  0  0
  3 31  1  0  0  0
  3 32  1  0  0  0
  3 33  1  0  0  0
  4  5  2  0  0  0
  4  6  1  0  0  0
  6  7  2  0  0  0
  6 26  1  0  0  0
  7  8  1  0  0  0
  7 34  1  0  0  0
  8  9  1  0  0  0
  8 24  2  0  0  0
  9 10  1  0  0  0
  9 35  1  0  0  0
 10 11  2  0  0  0
 10 15  1  0  0  0
 11 12  1  0  0  0
 11 36  1  0  0  0
 12 13  2  0  0  0
 12 37  1  0  0  0
 13 14  1  0  0  0
 13 38  1  0  0  0
 14 15  2  0  0  0
 14 39  1  0  0  0
 15 16  1  0  0  0
 16 17  1  0  0  0
 17 18  2  0  0  0
 17 22  1  0  0  0
 18 19  1  0  0  0
 18 40  1  0  0  0
 19 20  2  0  0  0
 19 41  1  0  0  0
 20 21  1  0  0  0
 20 42  1  0  0  0
 21 22  2  0  0  0
 21 43  1  0  0  0
 22 23  1  0  0  0
 23 44  1  0  0  0
 23 45  1  0  0  0
 24 25  1  0  0  0
 24 46  1  0  0  0
 25 26  2  0  0  0
 25 47  1  0  0  0
 26 27  1  0  0  0
M  END
> <energy>
80.3973

> <i_ionizer_Ion_state_n>
0

> <i_ionizer_Tot_Q>
0

> <s_ionizer_Ion_centers>


> <s_ionizer_Ion_types>


> <s_ionizer_Ion_ctrs_in>


> <r_ionizer_Ionization_penalty>
0.000745426

> <r_ionizer_Ionization_penalty_charging>
0

> <r_ionizer_Ionization_penalty_neutral>
0.000745426

$$$$
ZINC001211860679
                    3D
 Schrodinger Suite 2019-4.
 44 45  0  0  1  0            999 V2000
    5.3953   -2.2367   -0.7496 C   0  0  0  0  0  0
    4.1147   -1.8515   -0.0376 C   0  0  0  0  0  0
    3.5568   -0.7211   -0.7187 O   0  0  0  0  0  0
    2.9408    0.1254    0.1616 C   0  0  0  0  0  0
    1.5865   -0.0362    0.4498 C   0  0  0  0  0  0
    0.9295    0.8941    1.2621 C   0  0  0  0  0  0
   -0.4466    0.7896    1.6018 N   0  0  0  0  0  0
   -1.3374   -0.1836    1.0970 C   0  0  0  0  0  0
   -1.4658   -1.4135    1.7594 C   0  0  0  0  0  0
   -2.2912   -2.4193    1.2438 C   0  0  0  0  0  0
   -2.9739   -2.2052    0.0517 C   0  0  0  0  0  0
   -3.7527   -3.1836   -0.4285 F   0  0  0  0  0  0
   -2.8469   -0.9903   -0.6209 C   0  0  0  0  0  0
   -3.4998   -0.8068   -1.9307 C   0  0  0  0  0  0
   -3.1725   -1.5676   -2.8388 O   0  0  0  0  0  0
   -4.3885    0.2553   -2.0924 N   0  0  0  0  0  0
   -4.9118    0.5336   -3.4215 C   0  0  0  0  0  0
   -5.0315    0.9611   -0.9929 C   0  0  0  0  0  0
   -2.0202    0.0199   -0.1055 C   0  0  0  0  0  0
    1.6811    1.9427    1.8215 C   0  0  0  0  0  0
    3.0522    2.0950    1.5459 C   0  0  0  0  0  0
    3.8402    3.2205    2.1646 C   0  0  0  0  0  0
    3.3849    4.4482    1.7921 F   0  0  0  0  0  0
    5.1649    3.2002    1.8435 F   0  0  0  0  0  0
    3.7938    3.1995    3.5257 F   0  0  0  0  0  0
    3.6725    1.1826    0.6887 C   0  0  0  0  0  0
    6.1144   -1.4097   -0.7097 H   0  0  0  0  0  0
    5.8472   -3.1211   -0.2918 H   0  0  0  0  0  0
    5.2051   -2.4418   -1.8092 H   0  0  0  0  0  0
    4.3419   -1.6432    1.0154 H   0  0  0  0  0  0
    3.3960   -2.6762   -0.0819 H   0  0  0  0  0  0
    1.0491   -0.8655    0.0012 H   0  0  0  0  0  0
   -0.8627    1.7188    1.5396 H   0  0  0  0  0  0
   -0.9191   -1.5897    2.6831 H   0  0  0  0  0  0
   -2.3892   -3.3721    1.7559 H   0  0  0  0  0  0
   -4.2984    0.0816   -4.2054 H   0  0  0  0  0  0
   -5.9274    0.1328   -3.4892 H   0  0  0  0  0  0
   -4.9406    1.6168   -3.5711 H   0  0  0  0  0  0
   -4.7702    0.5461   -0.0168 H   0  0  0  0  0  0
   -4.7354    2.0126   -1.0350 H   0  0  0  0  0  0
   -6.1174    0.8807   -1.1134 H   0  0  0  0  0  0
   -1.8876    0.9406   -0.6653 H   0  0  0  0  0  0
    1.1972    2.6510    2.4940 H   0  0  0  0  0  0
    4.7224    1.2862    0.4275 H   0  0  0  0  0  0
  1  2  1  0  0  0
  1 27  1  0  0  0
  1 28  1  0  0  0
  1 29  1  0  0  0
  2  3  1  0  0  0
  2 30  1  0  0  0
  2 31  1  0  0  0
  3  4  1  0  0  0
  4  5  2  0  0  0
  4 26  1  0  0  0
  5  6  1  0  0  0
  5 32  1  0  0  0
  6  7  1  0  0  0
  6 20  2  0  0  0
  7  8  1  0  0  0
  7 33  1  0  0  0
  8  9  2  0  0  0
  8 19  1  0  0  0
  9 10  1  0  0  0
  9 34  1  0  0  0
 10 11  2  0  0  0
 10 35  1  0  0  0
 11 12  1  0  0  0
 11 13  1  0  0  0
 13 14  1  0  0  0
 13 19  2  0  0  0
 14 15  2  0  0  0
 14 16  1  0  0  0
 16 17  1  0  0  0
 16 18  1  0  0  0
 17 36  1  0  0  0
 17 37  1  0  0  0
 17 38  1  0  0  0
 18 39  1  0  0  0
 18 40  1  0  0  0
 18 41  1  0  0  0
 19 42  1  0  0  0
 20 21  1  0  0  0
 20 43  1  0  0  0
 21 22  1  0  0  0
 21 26  2  0  0  0
 22 23  1  0  0  0
 22 24  1  0  0  0
 22 25  1  0  0  0
 26 44  1  0  0  0
M  END
> <energy>
50.7709

> <i_ionizer_Ion_state_n>
0

> <i_ionizer_Tot_Q>
0

> <s_ionizer_Ion_centers>


> <s_ionizer_Ion_types>


> <s_ionizer_Ion_ctrs_in>


> <r_ionizer_Ionization_penalty>
0

> <r_ionizer_Ionization_penalty_charging>
0

> <r_ionizer_Ionization_penalty_neutral>
0

$$$$
ZINC001211860696
                    3D
 Schrodinger Suite 2019-4.
 36 39  0  0  1  0            999 V2000
    5.6806    0.5904   -2.2552 C   0  0  0  0  0  0
    4.3734    0.9380   -1.6155 C   0  0  0  0  0  0
    4.3174    1.6107   -0.3960 C   0  0  0  0  0  0
    5.4494    2.0116    0.1985 F   0  0  0  0  0  0
    3.1033    1.8597    0.2437 C   0  0  0  0  0  0
    1.9029    1.4133   -0.3214 C   0  0  0  0  0  0
    0.6456    1.5729    0.3928 C   0  0  0  0  0  0
    0.3843    2.5749    1.2481 N   0  0  0  0  0  0
   -0.8578    2.2364    1.7874 O   0  0  0  0  0  0
   -1.2238    1.0555    1.2072 C   0  0  0  0  0  0
   -2.4742    0.4223    1.7207 C   0  0  2  0  0  0
   -2.1587   -0.4958    2.9224 C   0  0  0  0  0  0
   -2.2102   -1.8938    2.3505 C   0  0  0  0  0  0
   -1.8383   -2.9180    2.8949 O   0  0  0  0  0  0
   -2.8800   -1.8562    1.0588 C   0  0  0  0  0  0
   -3.2922   -2.9145    0.2717 C   0  0  0  0  0  0
   -4.0131   -2.6019   -0.8765 C   0  0  0  0  0  0
   -4.6201   -3.8687   -1.8706 Cl  0  0  0  0  0  0
   -4.2736   -1.2668   -1.2255 C   0  0  0  0  0  0
   -3.8097   -0.2139   -0.4280 C   0  0  0  0  0  0
   -3.1091   -0.5218    0.7297 C   0  0  0  0  0  0
   -0.3551    0.6279    0.3222 N   0  0  0  0  0  0
    1.9463    0.7403   -1.5482 C   0  0  0  0  0  0
    3.1700    0.5156   -2.1786 C   0  0  0  0  0  0
    3.1852   -0.1455   -3.3449 F   0  0  0  0  0  0
    5.6203    0.7008   -3.3427 H   0  0  0  0  0  0
    5.9472   -0.4455   -2.0201 H   0  0  0  0  0  0
    6.4906    1.2384   -1.9073 H   0  0  0  0  0  0
    3.1148    2.3665    1.2041 H   0  0  0  0  0  0
   -3.1943    1.1907    2.0228 H   0  0  0  0  0  0
   -2.9533   -0.4248    3.6782 H   0  0  0  0  0  0
   -1.1859   -0.2998    3.3856 H   0  0  0  0  0  0
   -3.0798   -3.9414    0.5558 H   0  0  0  0  0  0
   -4.8365   -1.0408   -2.1272 H   0  0  0  0  0  0
   -4.0057    0.8148   -0.7184 H   0  0  0  0  0  0
    1.0400    0.3685   -2.0190 H   0  0  0  0  0  0
  1  2  1  0  0  0
  1 26  1  0  0  0
  1 27  1  0  0  0
  1 28  1  0  0  0
  2  3  2  0  0  0
  2 24  1  0  0  0
  3  4  1  0  0  0
  3  5  1  0  0  0
  5  6  2  0  0  0
  5 29  1  0  0  0
  6  7  1  0  0  0
  6 23  1  0  0  0
  7  8  2  0  0  0
  7 22  1  0  0  0
  8  9  1  0  0  0
  9 10  1  0  0  0
 10 11  1  0  0  0
 10 22  2  0  0  0
 11 12  1  0  0  0
 11 21  1  0  0  0
 11 30  1  0  0  0
 12 13  1  0  0  0
 12 31  1  0  0  0
 12 32  1  0  0  0
 13 14  2  0  0  0
 13 15  1  0  0  0
 15 16  2  0  0  0
 15 21  1  0  0  0
 16 17  1  0  0  0
 16 33  1  0  0  0
 17 18  1  0  0  0
 17 19  2  0  0  0
 19 20  1  0  0  0
 19 34  1  0  0  0
 20 21  2  0  0  0
 20 35  1  0  0  0
 23 24  2  0  0  0
 23 36  1  0  0  0
 24 25  1  0  0  0
M  END
> <energy>
35.6677

> <i_ionizer_Ion_state_n>
0

> <i_ionizer_Tot_Q>
0

> <s_ionizer_Ion_centers>


> <s_ionizer_Ion_types>


> <s_ionizer_Ion_ctrs_in>


> <r_ionizer_Ionization_penalty>
0

> <r_ionizer_Ionization_penalty_charging>
0

> <r_ionizer_Ionization_penalty_neutral>
0

$$$$
ZINC001211860697
                    3D
 Schrodinger Suite 2019-4.
 36 39  0  0  1  0            999 V2000
    5.9926   -2.5960   -0.4878 C   0  0  0  0  0  0
    4.7759   -1.7330   -0.4112 C   0  0  0  0  0  0
    4.0636   -1.3920   -1.5624 C   0  0  0  0  0  0
    4.4559   -1.8576   -2.7562 F   0  0  0  0  0  0
    2.9300   -0.5826   -1.5023 C   0  0  0  0  0  0
    2.4802   -0.0886   -0.2707 C   0  0  0  0  0  0
    1.2583    0.6985   -0.1937 C   0  0  0  0  0  0
    0.7722    1.4395   -1.2019 N   0  0  0  0  0  0
   -0.4664    1.8656   -0.7300 O   0  0  0  0  0  0
   -0.6077    1.3428    0.5204 C   0  0  0  0  0  0
   -1.9321    1.4600    1.1785 C   0  0  1  0  0  0
   -2.5464    2.8711    1.1240 C   0  0  0  0  0  0
   -3.9728    2.6551    0.6785 C   0  0  0  0  0  0
   -4.8511    3.4959    0.6348 O   0  0  0  0  0  0
   -4.1565    1.2713    0.2761 C   0  0  0  0  0  0
   -5.2707    0.6847   -0.2903 C   0  0  0  0  0  0
   -5.1765   -0.6670   -0.6121 C   0  0  0  0  0  0
   -6.5215   -1.4586   -1.3406 Cl  0  0  0  0  0  0
   -4.0041   -1.3949   -0.3572 C   0  0  0  0  0  0
   -2.8973   -0.7745    0.2296 C   0  0  0  0  0  0
   -2.9802    0.5778    0.5390 C   0  0  0  0  0  0
    0.4407    0.6554    0.9125 N   0  0  0  0  0  0
    3.1987   -0.4064    0.8860 C   0  0  0  0  0  0
    4.3379   -1.2051    0.8054 C   0  0  0  0  0  0
    5.0134   -1.4750    1.9296 F   0  0  0  0  0  0
    6.1168   -3.1769    0.4323 H   0  0  0  0  0  0
    6.8840   -1.9807   -0.6397 H   0  0  0  0  0  0
    5.9163   -3.3152   -1.3118 H   0  0  0  0  0  0
    2.3971   -0.3650   -2.4262 H   0  0  0  0  0  0
   -1.8372    1.1550    2.2295 H   0  0  0  0  0  0
   -2.0521    3.5336    0.4077 H   0  0  0  0  0  0
   -2.5329    3.3356    2.1147 H   0  0  0  0  0  0
   -6.1690    1.2620   -0.4821 H   0  0  0  0  0  0
   -3.9481   -2.4503   -0.6107 H   0  0  0  0  0  0
   -1.9947   -1.3459    0.4300 H   0  0  0  0  0  0
    2.8838   -0.0387    1.8581 H   0  0  0  0  0  0
  1  2  1  0  0  0
  1 26  1  0  0  0
  1 27  1  0  0  0
  1 28  1  0  0  0
  2  3  2  0  0  0
  2 24  1  0  0  0
  3  4  1  0  0  0
  3  5  1  0  0  0
  5  6  2  0  0  0
  5 29  1  0  0  0
  6  7  1  0  0  0
  6 23  1  0  0  0
  7  8  2  0  0  0
  7 22  1  0  0  0
  8  9  1  0  0  0
  9 10  1  0  0  0
 10 11  1  0  0  0
 10 22  2  0  0  0
 11 12  1  0  0  0
 11 21  1  0  0  0
 11 30  1  0  0  0
 12 13  1  0  0  0
 12 31  1  0  0  0
 12 32  1  0  0  0
 13 14  2  0  0  0
 13 15  1  0  0  0
 15 16  2  0  0  0
 15 21  1  0  0  0
 16 17  1  0  0  0
 16 33  1  0  0  0
 17 18  1  0  0  0
 17 19  2  0  0  0
 19 20  1  0  0  0
 19 34  1  0  0  0
 20 21  2  0  0  0
 20 35  1  0  0  0
 23 24  2  0  0  0
 23 36  1  0  0  0
 24 25  1  0  0  0
M  END
> <energy>
36.2606

> <i_ionizer_Ion_state_n>
0

> <i_ionizer_Tot_Q>
0

> <s_ionizer_Ion_centers>


> <s_ionizer_Ion_types>


> <s_ionizer_Ion_ctrs_in>


> <r_ionizer_Ionization_penalty>
0

> <r_ionizer_Ionization_penalty_charging>
0

> <r_ionizer_Ionization_penalty_neutral>
0

$$$$
ZINC001211860704
                    3D
 Schrodinger Suite 2019-4.
 40 43  0  0  1  0            999 V2000
    4.5467   -1.2543   -1.4367 C   0  0  0  0  0  0
    5.5022   -0.2378   -0.8206 C   0  0  0  0  0  0
    5.0528    1.1260   -0.9607 O   0  0  0  0  0  0
    3.9389    1.3980   -0.2126 C   0  0  0  0  0  0
    3.9062    1.2491    1.1755 C   0  0  0  0  0  0
    2.6798    1.3098    1.8337 C   0  0  0  0  0  0
    1.5055    1.5609    1.1080 C   0  0  0  0  0  0
    0.1979    1.2904    1.6887 C   0  0  0  0  0  0
   -0.0312    1.0928    2.9954 N   0  0  0  0  0  0
   -1.2737    0.4592    3.0235 O   0  0  0  0  0  0
   -1.6605    0.3252    1.7226 C   0  0  0  0  0  0
   -2.7901   -0.5963    1.4497 C   0  0  1  0  0  0
   -4.1316   -0.0502    1.9798 C   0  0  0  0  0  0
   -5.1016   -0.2434    0.8406 C   0  0  0  0  0  0
   -6.3024   -0.0571    0.8740 O   0  0  0  0  0  0
   -4.3825   -0.6754   -0.3505 C   0  0  0  0  0  0
   -4.8821   -0.8643   -1.6287 C   0  0  0  0  0  0
   -3.9759   -1.2464   -2.6150 C   0  0  0  0  0  0
   -4.5290   -1.4765   -4.2298 Cl  0  0  0  0  0  0
   -2.6167   -1.4324   -2.3161 C   0  0  0  0  0  0
   -2.1474   -1.2472   -1.0104 C   0  0  0  0  0  0
   -3.0461   -0.8532   -0.0204 C   0  0  0  0  0  0
   -0.8480    0.9021    0.8779 N   0  0  0  0  0  0
    1.5906    1.8768   -0.2519 C   0  0  0  0  0  0
    2.8078    1.7963   -0.9186 C   0  0  0  0  0  0
    3.6467   -1.3876   -0.8263 H   0  0  0  0  0  0
    4.2177   -0.9514   -2.4355 H   0  0  0  0  0  0
    5.0364   -2.2295   -1.5159 H   0  0  0  0  0  0
    6.4549   -0.3017   -1.3627 H   0  0  0  0  0  0
    5.7262   -0.4878    0.2253 H   0  0  0  0  0  0
    4.8100    1.0317    1.7391 H   0  0  0  0  0  0
    2.6395    1.0871    2.8968 H   0  0  0  0  0  0
   -2.5811   -1.5648    1.9259 H   0  0  0  0  0  0
   -4.4749   -0.6306    2.8432 H   0  0  0  0  0  0
   -4.0950    1.0087    2.2537 H   0  0  0  0  0  0
   -5.9330   -0.7064   -1.8373 H   0  0  0  0  0  0
   -1.9179   -1.7099   -3.1056 H   0  0  0  0  0  0
   -1.0931   -1.3915   -0.7930 H   0  0  0  0  0  0
    0.6917    2.1162   -0.8152 H   0  0  0  0  0  0
    2.8623    1.9655   -1.9896 H   0  0  0  0  0  0
  1  2  1  0  0  0
  1 26  1  0  0  0
  1 27  1  0  0  0
  1 28  1  0  0  0
  2  3  1  0  0  0
  2 29  1  0  0  0
  2 30  1  0  0  0
  3  4  1  0  0  0
  4  5  2  0  0  0
  4 25  1  0  0  0
  5  6  1  0  0  0
  5 31  1  0  0  0
  6  7  2  0  0  0
  6 32  1  0  0  0
  7  8  1  0  0  0
  7 24  1  0  0  0
  8  9  2  0  0  0
  8 23  1  0  0  0
  9 10  1  0  0  0
 10 11  1  0  0  0
 11 12  1  0  0  0
 11 23  2  0  0  0
 12 13  1  0  0  0
 12 22  1  0  0  0
 12 33  1  0  0  0
 13 14  1  0  0  0
 13 34  1  0  0  0
 13 35  1  0  0  0
 14 15  2  0  0  0
 14 16  1  0  0  0
 16 17  2  0  0  0
 16 22  1  0  0  0
 17 18  1  0  0  0
 17 36  1  0  0  0
 18 19  1  0  0  0
 18 20  2  0  0  0
 20 21  1  0  0  0
 20 37  1  0  0  0
 21 22  2  0  0  0
 21 38  1  0  0  0
 24 25  2  0  0  0
 24 39  1  0  0  0
 25 40  1  0  0  0
M  END
> <energy>
72.2032

> <i_ionizer_Ion_state_n>
0

> <i_ionizer_Tot_Q>
0

> <s_ionizer_Ion_centers>


> <s_ionizer_Ion_types>


> <s_ionizer_Ion_ctrs_in>


> <r_ionizer_Ionization_penalty>
0

> <r_ionizer_Ionization_penalty_charging>
0

> <r_ionizer_Ionization_penalty_neutral>
0

$$$$
ZINC001211860705
                    3D
 Schrodinger Suite 2019-4.
 40 43  0  0  1  0            999 V2000
    5.2291    2.1248   -0.4282 C   0  0  0  0  0  0
    4.5402    2.5881    0.8434 C   0  0  0  0  0  0
    3.7469    3.7581    0.5830 O   0  0  0  0  0  0
    2.4390    3.4206    0.3772 C   0  0  0  0  0  0
    1.9091    3.5321   -0.9026 C   0  0  0  0  0  0
    0.6262    3.0505   -1.1641 C   0  0  0  0  0  0
   -0.1495    2.5104   -0.1257 C   0  0  0  0  0  0
   -1.3621    1.7476   -0.3945 C   0  0  0  0  0  0
   -2.3275    1.5651    0.5229 N   0  0  0  0  0  0
   -2.9087    0.3502    0.1434 O   0  0  0  0  0  0
   -2.2213   -0.0802   -0.9486 C   0  0  0  0  0  0
   -2.2314   -1.5255   -1.2771 C   0  0  2  0  0  0
   -3.5262   -2.0415   -1.9182 C   0  0  0  0  0  0
   -3.6275   -3.4577   -1.3980 C   0  0  0  0  0  0
   -4.3400   -4.3460   -1.8333 O   0  0  0  0  0  0
   -2.7647   -3.6065   -0.2285 C   0  0  0  0  0  0
   -2.6846   -4.6616    0.6623 C   0  0  0  0  0  0
   -1.7939   -4.5392    1.7243 C   0  0  0  0  0  0
   -1.6133   -5.8304    2.8447 Cl  0  0  0  0  0  0
   -1.0340   -3.3679    1.8898 C   0  0  0  0  0  0
   -1.1338   -2.3139    0.9717 C   0  0  0  0  0  0
   -2.0084   -2.4457   -0.0997 C   0  0  0  0  0  0
   -1.3793    0.8184   -1.4154 N   0  0  0  0  0  0
    0.3560    2.5284    1.1832 C   0  0  0  0  0  0
    1.6493    2.9764    1.4335 C   0  0  0  0  0  0
    5.8703    2.9130   -0.8330 H   0  0  0  0  0  0
    5.8434    1.2412   -0.2329 H   0  0  0  0  0  0
    4.5031    1.8651   -1.2064 H   0  0  0  0  0  0
    3.9697    1.7574    1.2834 H   0  0  0  0  0  0
    5.3047    2.8676    1.5749 H   0  0  0  0  0  0
    2.5156    3.9537   -1.6969 H   0  0  0  0  0  0
    0.2480    3.0646   -2.1833 H   0  0  0  0  0  0
   -1.4005   -1.7210   -1.9739 H   0  0  0  0  0  0
   -4.4173   -1.4899   -1.6083 H   0  0  0  0  0  0
   -3.4457   -2.0402   -3.0096 H   0  0  0  0  0  0
   -3.2884   -5.5510    0.5338 H   0  0  0  0  0  0
   -0.3612   -3.2738    2.7399 H   0  0  0  0  0  0
   -0.5330   -1.4181    1.1178 H   0  0  0  0  0  0
   -0.2451    2.1346    2.0024 H   0  0  0  0  0  0
    2.0465    2.9421    2.4466 H   0  0  0  0  0  0
  1  2  1  0  0  0
  1 26  1  0  0  0
  1 27  1  0  0  0
  1 28  1  0  0  0
  2  3  1  0  0  0
  2 29  1  0  0  0
  2 30  1  0  0  0
  3  4  1  0  0  0
  4  5  2  0  0  0
  4 25  1  0  0  0
  5  6  1  0  0  0
  5 31  1  0  0  0
  6  7  2  0  0  0
  6 32  1  0  0  0
  7  8  1  0  0  0
  7 24  1  0  0  0
  8  9  2  0  0  0
  8 23  1  0  0  0
  9 10  1  0  0  0
 10 11  1  0  0  0
 11 12  1  0  0  0
 11 23  2  0  0  0
 12 13  1  0  0  0
 12 22  1  0  0  0
 12 33  1  0  0  0
 13 14  1  0  0  0
 13 34  1  0  0  0
 13 35  1  0  0  0
 14 15  2  0  0  0
 14 16  1  0  0  0
 16 17  2  0  0  0
 16 22  1  0  0  0
 17 18  1  0  0  0
 17 36  1  0  0  0
 18 19  1  0  0  0
 18 20  2  0  0  0
 20 21  1  0  0  0
 20 37  1  0  0  0
 21 22  2  0  0  0
 21 38  1  0  0  0
 24 25  2  0  0  0
 24 39  1  0  0  0
 25 40  1  0  0  0
M  END
> <energy>
77.8258

> <i_ionizer_Ion_state_n>
0

> <i_ionizer_Tot_Q>
0

> <s_ionizer_Ion_centers>


> <s_ionizer_Ion_types>


> <s_ionizer_Ion_ctrs_in>


> <r_ionizer_Ionization_penalty>
0

> <r_ionizer_Ionization_penalty_charging>
0

> <r_ionizer_Ionization_penalty_neutral>
0

$$$$
ZINC001211860720
                    3D
 Schrodinger Suite 2019-4.
 33 36  0  0  1  0            999 V2000
    2.1189   -1.3857   -3.6559 O   0  0  0  0  0  0
    1.9799   -1.5722   -2.4627 C   0  0  0  0  0  0
    2.9068   -1.1057   -1.3686 C   0  0  0  0  0  0
    2.1166   -1.3500   -0.0604 C   0  0  1  0  0  0
    1.5743   -0.0637    0.4652 C   0  0  0  0  0  0
    0.3334    0.3540    0.5639 N   0  0  0  0  0  0
    0.4838    1.6386    1.0229 C   0  0  0  0  0  0
   -0.6528    2.5044    1.2404 C   0  0  0  0  0  0
   -0.7592    3.7311    0.5702 C   0  0  0  0  0  0
   -1.8838    4.5395    0.7578 C   0  0  0  0  0  0
   -2.8947    4.1388    1.6328 C   0  0  0  0  0  0
   -2.7857    2.9212    2.3075 C   0  0  0  0  0  0
   -4.0332    2.4479    3.3947 Cl  0  0  0  0  0  0
   -1.6725    2.1060    2.1081 C   0  0  0  0  0  0
   -1.5694    0.9459    2.7782 F   0  0  0  0  0  0
    1.7596    2.0115    1.2068 N   0  0  0  0  0  0
    2.4859    0.8694    0.8688 O   0  0  0  0  0  0
    1.0263   -2.3005   -0.4911 C   0  0  0  0  0  0
    0.1371   -3.0091    0.3045 C   0  0  0  0  0  0
   -0.8661   -3.7593   -0.3237 C   0  0  0  0  0  0
   -0.9655   -3.7947   -1.7254 C   0  0  0  0  0  0
   -2.2210   -4.7149   -2.4630 Cl  0  0  0  0  0  0
   -0.0670   -3.0966   -2.5249 C   0  0  0  0  0  0
    0.9097   -2.3649   -1.8764 C   0  0  0  0  0  0
    3.8063   -1.7326   -1.4032 H   0  0  0  0  0  0
    3.1839   -0.0581   -1.5235 H   0  0  0  0  0  0
    2.7645   -1.8211    0.6888 H   0  0  0  0  0  0
    0.0287    4.0578   -0.1081 H   0  0  0  0  0  0
   -1.9734    5.4831    0.2249 H   0  0  0  0  0  0
   -3.7609    4.7779    1.7852 H   0  0  0  0  0  0
    0.1897   -2.9647    1.3899 H   0  0  0  0  0  0
   -1.5790   -4.3128    0.2848 H   0  0  0  0  0  0
   -0.1211   -3.1202   -3.6086 H   0  0  0  0  0  0
  1  2  2  0  0  0
  2  3  1  0  0  0
  2 24  1  0  0  0
  3  4  1  0  0  0
  3 25  1  0  0  0
  3 26  1  0  0  0
  4  5  1  0  0  0
  4 18  1  0  0  0
  4 27  1  0  0  0
  5  6  2  0  0  0
  5 17  1  0  0  0
  6  7  1  0  0  0
  7  8  1  0  0  0
  7 16  2  0  0  0
  8  9  2  0  0  0
  8 14  1  0  0  0
  9 10  1  0  0  0
  9 28  1  0  0  0
 10 11  2  0  0  0
 10 29  1  0  0  0
 11 12  1  0  0  0
 11 30  1  0  0  0
 12 13  1  0  0  0
 12 14  2  0  0  0
 14 15  1  0  0  0
 16 17  1  0  0  0
 18 19  2  0  0  0
 18 24  1  0  0  0
 19 20  1  0  0  0
 19 31  1  0  0  0
 20 21  2  0  0  0
 20 32  1  0  0  0
 21 22  1  0  0  0
 21 23  1  0  0  0
 23 24  2  0  0  0
 23 33  1  0  0  0
M  END
> <energy>
60.1104

> <i_ionizer_Ion_state_n>
0

> <i_ionizer_Tot_Q>
0

> <s_ionizer_Ion_centers>


> <s_ionizer_Ion_types>


> <s_ionizer_Ion_ctrs_in>


> <r_ionizer_Ionization_penalty>
0

> <r_ionizer_Ionization_penalty_charging>
0

> <r_ionizer_Ionization_penalty_neutral>
0

$$$$
ZINC001211860721
                    3D
 Schrodinger Suite 2019-4.
 33 36  0  0  1  0            999 V2000
    4.7361   -1.4429    2.0191 O   0  0  0  0  0  0
    3.7380   -0.8676    1.6273 C   0  0  0  0  0  0
    2.3575   -0.9683    2.2248 C   0  0  0  0  0  0
    1.5090    0.0490    1.4302 C   0  0  2  0  0  0
    0.2070   -0.4737    0.9328 C   0  0  0  0  0  0
   -0.8750    0.2013    0.6141 N   0  0  0  0  0  0
   -1.7448   -0.7859    0.2092 C   0  0  0  0  0  0
   -3.0979   -0.5043   -0.2378 C   0  0  0  0  0  0
   -4.1473   -1.3901    0.0623 C   0  0  0  0  0  0
   -5.4527   -1.1163   -0.3552 C   0  0  0  0  0  0
   -5.7208    0.0407   -1.0879 C   0  0  0  0  0  0
   -4.6820    0.9190   -1.4009 C   0  0  0  0  0  0
   -5.0251    2.3296   -2.3300 Cl  0  0  0  0  0  0
   -3.3796    0.6502   -0.9757 C   0  0  0  0  0  0
   -2.3905    1.4964   -1.3100 F   0  0  0  0  0  0
   -1.2355   -2.0252    0.3026 N   0  0  0  0  0  0
    0.0649   -1.8180    0.7561 O   0  0  0  0  0  0
    2.4284    0.5266    0.3349 C   0  0  0  0  0  0
    2.1532    1.4161   -0.6969 C   0  0  0  0  0  0
    3.1899    1.7761   -1.5671 C   0  0  0  0  0  0
    4.4818    1.2534   -1.3937 C   0  0  0  0  0  0
    5.7445    1.7332   -2.4627 Cl  0  0  0  0  0  0
    4.7600    0.3626   -0.3610 C   0  0  0  0  0  0
    3.7150    0.0229    0.4775 C   0  0  0  0  0  0
    2.0131   -2.0029    2.1393 H   0  0  0  0  0  0
    2.4001   -0.6898    3.2829 H   0  0  0  0  0  0
    1.3020    0.9055    2.0848 H   0  0  0  0  0  0
   -3.9531   -2.2989    0.6306 H   0  0  0  0  0  0
   -6.2595   -1.8081   -0.1154 H   0  0  0  0  0  0
   -6.7357    0.2445   -1.4196 H   0  0  0  0  0  0
    1.1578    1.8361   -0.8304 H   0  0  0  0  0  0
    2.9885    2.4734   -2.3781 H   0  0  0  0  0  0
    5.7525   -0.0448   -0.2059 H   0  0  0  0  0  0
  1  2  2  0  0  0
  2  3  1  0  0  0
  2 24  1  0  0  0
  3  4  1  0  0  0
  3 25  1  0  0  0
  3 26  1  0  0  0
  4  5  1  0  0  0
  4 18  1  0  0  0
  4 27  1  0  0  0
  5  6  2  0  0  0
  5 17  1  0  0  0
  6  7  1  0  0  0
  7  8  1  0  0  0
  7 16  2  0  0  0
  8  9  2  0  0  0
  8 14  1  0  0  0
  9 10  1  0  0  0
  9 28  1  0  0  0
 10 11  2  0  0  0
 10 29  1  0  0  0
 11 12  1  0  0  0
 11 30  1  0  0  0
 12 13  1  0  0  0
 12 14  2  0  0  0
 14 15  1  0  0  0
 16 17  1  0  0  0
 18 19  2  0  0  0
 18 24  1  0  0  0
 19 20  1  0  0  0
 19 31  1  0  0  0
 20 21  2  0  0  0
 20 32  1  0  0  0
 21 22  1  0  0  0
 21 23  1  0  0  0
 23 24  2  0  0  0
 23 33  1  0  0  0
M  END
> <energy>
59.4073

> <i_ionizer_Ion_state_n>
0

> <i_ionizer_Tot_Q>
0

> <s_ionizer_Ion_centers>


> <s_ionizer_Ion_types>


> <s_ionizer_Ion_ctrs_in>


> <r_ionizer_Ionization_penalty>
0

> <r_ionizer_Ionization_penalty_charging>
0

> <r_ionizer_Ionization_penalty_neutral>
0

$$$$
ZINC001211860733
                    3D
 Schrodinger Suite 2019-4.
 33 36  0  0  1  0            999 V2000
    3.3584   -1.7299   -2.1750 O   0  0  0  0  0  0
    3.0193   -0.7971   -1.4706 C   0  0  0  0  0  0
    2.5289    0.5471   -1.9442 C   0  0  0  0  0  0
    2.0150    1.2486   -0.6663 C   0  0  1  0  0  0
    0.5261    1.3222   -0.6850 C   0  0  0  0  0  0
   -0.3770    0.5042   -0.1918 N   0  0  0  0  0  0
   -1.5582    1.0602   -0.6264 C   0  0  0  0  0  0
   -2.8473    0.4432   -0.3902 C   0  0  0  0  0  0
   -3.7745    0.3376   -1.4381 C   0  0  0  0  0  0
   -5.0021   -0.2826   -1.2222 C   0  0  0  0  0  0
   -5.8708   -0.3851   -2.2353 F   0  0  0  0  0  0
   -5.3397   -0.7951    0.0223 C   0  0  0  0  0  0
   -4.4283   -0.6746    1.0629 C   0  0  0  0  0  0
   -4.7579   -1.1467    2.2726 F   0  0  0  0  0  0
   -3.1883   -0.0657    0.8658 C   0  0  0  0  0  0
   -2.3465    0.0450    1.9052 F   0  0  0  0  0  0
   -1.3979    2.1757   -1.3564 N   0  0  0  0  0  0
   -0.0176    2.3589   -1.3859 O   0  0  0  0  0  0
    2.5580    0.3956    0.4512 C   0  0  0  0  0  0
    2.5421    0.6513    1.8142 C   0  0  0  0  0  0
    3.0529   -0.3214    2.6829 C   0  0  0  0  0  0
    3.5659   -1.5307    2.1828 C   0  0  0  0  0  0
    4.1725   -2.7078    3.2819 Cl  0  0  0  0  0  0
    3.5912   -1.7865    0.8149 C   0  0  0  0  0  0
    3.0868   -0.8038   -0.0170 C   0  0  0  0  0  0
    1.7569    0.4231   -2.7099 H   0  0  0  0  0  0
    3.3820    1.0895   -2.3689 H   0  0  0  0  0  0
    2.4394    2.2568   -0.6040 H   0  0  0  0  0  0
   -3.5468    0.7215   -2.4294 H   0  0  0  0  0  0
   -6.2992   -1.2747    0.1785 H   0  0  0  0  0  0
    2.1306    1.5737    2.2137 H   0  0  0  0  0  0
    3.0367   -0.1412    3.7563 H   0  0  0  0  0  0
    3.9892   -2.7112    0.4116 H   0  0  0  0  0  0
  1  2  2  0  0  0
  2  3  1  0  0  0
  2 25  1  0  0  0
  3  4  1  0  0  0
  3 26  1  0  0  0
  3 27  1  0  0  0
  4  5  1  0  0  0
  4 19  1  0  0  0
  4 28  1  0  0  0
  5  6  2  0  0  0
  5 18  1  0  0  0
  6  7  1  0  0  0
  7  8  1  0  0  0
  7 17  2  0  0  0
  8  9  2  0  0  0
  8 15  1  0  0  0
  9 10  1  0  0  0
  9 29  1  0  0  0
 10 11  1  0  0  0
 10 12  2  0  0  0
 12 13  1  0  0  0
 12 30  1  0  0  0
 13 14  1  0  0  0
 13 15  2  0  0  0
 15 16  1  0  0  0
 17 18  1  0  0  0
 19 20  2  0  0  0
 19 25  1  0  0  0
 20 21  1  0  0  0
 20 31  1  0  0  0
 21 22  2  0  0  0
 21 32  1  0  0  0
 22 23  1  0  0  0
 22 24  1  0  0  0
 24 25  2  0  0  0
 24 33  1  0  0  0
M  END
> <energy>
38.6336

> <i_ionizer_Ion_state_n>
0

> <i_ionizer_Tot_Q>
0

> <s_ionizer_Ion_centers>


> <s_ionizer_Ion_types>


> <s_ionizer_Ion_ctrs_in>


> <r_ionizer_Ionization_penalty>
0

> <r_ionizer_Ionization_penalty_charging>
0

> <r_ionizer_Ionization_penalty_neutral>
0

$$$$
ZINC001211860734
                    3D
 Schrodinger Suite 2019-4.
 33 36  0  0  1  0            999 V2000
    3.6756   -0.1271   -2.4993 O   0  0  0  0  0  0
    3.1663   -0.3822   -1.4222 C   0  0  0  0  0  0
    2.5215   -1.6856   -1.0258 C   0  0  0  0  0  0
    1.9722   -1.4412    0.3971 C   0  0  2  0  0  0
    0.4854   -1.4543    0.4164 C   0  0  0  0  0  0
   -0.3680   -0.7667   -0.3059 N   0  0  0  0  0  0
   -1.5806   -1.1283    0.2301 C   0  0  0  0  0  0
   -2.8344   -0.5468   -0.2140 C   0  0  0  0  0  0
   -3.9175   -0.4353    0.6724 C   0  0  0  0  0  0
   -5.1041    0.1617    0.2536 C   0  0  0  0  0  0
   -6.1229    0.2700    1.1157 F   0  0  0  0  0  0
   -5.2482    0.6474   -1.0375 C   0  0  0  0  0  0
   -4.1827    0.5246   -1.9189 C   0  0  0  0  0  0
   -4.3187    0.9790   -3.1721 F   0  0  0  0  0  0
   -2.9843   -0.0648   -1.5188 C   0  0  0  0  0  0
   -1.9924   -0.1759   -2.4150 F   0  0  0  0  0  0
   -1.4848   -2.0115    1.2385 N   0  0  0  0  0  0
   -0.1147   -2.2329    1.3602 O   0  0  0  0  0  0
    2.5129   -0.0844    0.7705 C   0  0  0  0  0  0
    2.3808    0.5856    1.9791 C   0  0  0  0  0  0
    2.8898    1.8852    2.0802 C   0  0  0  0  0  0
    3.5216    2.4934    0.9823 C   0  0  0  0  0  0
    4.1220    4.0992    1.1381 Cl  0  0  0  0  0  0
    3.6630    1.8202   -0.2281 C   0  0  0  0  0  0
    3.1519    0.5376   -0.2961 C   0  0  0  0  0  0
    3.2958   -2.4600   -1.0082 H   0  0  0  0  0  0
    1.7472   -1.9602   -1.7487 H   0  0  0  0  0  0
    2.3712   -2.2020    1.0782 H   0  0  0  0  0  0
   -3.8477   -0.7962    1.6961 H   0  0  0  0  0  0
   -6.1751    1.1131   -1.3528 H   0  0  0  0  0  0
    1.8748    0.1312    2.8268 H   0  0  0  0  0  0
    2.7796    2.4315    3.0149 H   0  0  0  0  0  0
    4.1444    2.2757   -1.0871 H   0  0  0  0  0  0
  1  2  2  0  0  0
  2  3  1  0  0  0
  2 25  1  0  0  0
  3  4  1  0  0  0
  3 26  1  0  0  0
  3 27  1  0  0  0
  4  5  1  0  0  0
  4 19  1  0  0  0
  4 28  1  0  0  0
  5  6  2  0  0  0
  5 18  1  0  0  0
  6  7  1  0  0  0
  7  8  1  0  0  0
  7 17  2  0  0  0
  8  9  2  0  0  0
  8 15  1  0  0  0
  9 10  1  0  0  0
  9 29  1  0  0  0
 10 11  1  0  0  0
 10 12  2  0  0  0
 12 13  1  0  0  0
 12 30  1  0  0  0
 13 14  1  0  0  0
 13 15  2  0  0  0
 15 16  1  0  0  0
 17 18  1  0  0  0
 19 20  2  0  0  0
 19 25  1  0  0  0
 20 21  1  0  0  0
 20 31  1  0  0  0
 21 22  2  0  0  0
 21 32  1  0  0  0
 22 23  1  0  0  0
 22 24  1  0  0  0
 24 25  2  0  0  0
 24 33  1  0  0  0
M  END
> <energy>
37.7834

> <i_ionizer_Ion_state_n>
0

> <i_ionizer_Tot_Q>
0

> <s_ionizer_Ion_centers>


> <s_ionizer_Ion_types>


> <s_ionizer_Ion_ctrs_in>


> <r_ionizer_Ionization_penalty>
0

> <r_ionizer_Ionization_penalty_charging>
0

> <r_ionizer_Ionization_penalty_neutral>
0

$$$$
ZINC001211860742
                    3D
 Schrodinger Suite 2019-4.
 36 39  0  0  1  0            999 V2000
   -5.6294    2.6027   -0.3467 C   0  0  0  0  0  0
   -4.5244    1.5946   -0.2633 C   0  0  0  0  0  0
   -3.4109    1.6899   -1.1012 C   0  0  0  0  0  0
   -2.3544    0.7851   -0.9684 C   0  0  0  0  0  0
   -2.3826   -0.2356   -0.0003 C   0  0  0  0  0  0
   -1.2327   -1.1218    0.1197 C   0  0  0  0  0  0
   -1.1833   -2.2553    0.8340 N   0  0  0  0  0  0
    0.1222   -2.7086    0.6592 O   0  0  0  0  0  0
    0.7544   -1.7958   -0.1310 C   0  0  0  0  0  0
    2.2008   -2.0042   -0.4579 C   0  0  2  0  0  0
    2.9614   -2.8725    0.5696 C   0  0  0  0  0  0
    3.7874   -1.8926    1.3646 C   0  0  0  0  0  0
    4.4073   -2.1246    2.3866 O   0  0  0  0  0  0
    3.8016   -0.6089    0.6838 C   0  0  0  0  0  0
    4.5120    0.5321    1.0137 C   0  0  0  0  0  0
    4.3844    1.6215    0.1581 C   0  0  0  0  0  0
    5.2282    3.0818    0.5048 Cl  0  0  0  0  0  0
    3.5696    1.5522   -0.9849 C   0  0  0  0  0  0
    2.8506    0.3862   -1.2813 C   0  0  0  0  0  0
    2.9634   -0.6986   -0.4222 C   0  0  0  0  0  0
   -0.0452   -0.8282   -0.5213 N   0  0  0  0  0  0
   -3.5022   -0.3293    0.8299 C   0  0  0  0  0  0
   -3.5874   -1.2705    1.7816 F   0  0  0  0  0  0
   -4.5543    0.5805    0.6998 C   0  0  0  0  0  0
   -5.6089    0.4875    1.5237 F   0  0  0  0  0  0
   -6.6069    2.1235   -0.2436 H   0  0  0  0  0  0
   -5.5116    3.3522    0.4426 H   0  0  0  0  0  0
   -5.6200    3.1219   -1.3130 H   0  0  0  0  0  0
   -3.3519    2.4718   -1.8550 H   0  0  0  0  0  0
   -1.4953    0.8889   -1.6302 H   0  0  0  0  0  0
    2.2765   -2.4596   -1.4530 H   0  0  0  0  0  0
    3.6581   -3.5422    0.0524 H   0  0  0  0  0  0
    2.3207   -3.4595    1.2312 H   0  0  0  0  0  0
    5.1321    0.5649    1.9030 H   0  0  0  0  0  0
    3.4750    2.4186   -1.6368 H   0  0  0  0  0  0
    2.1958    0.3520   -2.1482 H   0  0  0  0  0  0
  1  2  1  0  0  0
  1 26  1  0  0  0
  1 27  1  0  0  0
  1 28  1  0  0  0
  2  3  2  0  0  0
  2 24  1  0  0  0
  3  4  1  0  0  0
  3 29  1  0  0  0
  4  5  2  0  0  0
  4 30  1  0  0  0
  5  6  1  0  0  0
  5 22  1  0  0  0
  6  7  2  0  0  0
  6 21  1  0  0  0
  7  8  1  0  0  0
  8  9  1  0  0  0
  9 10  1  0  0  0
  9 21  2  0  0  0
 10 11  1  0  0  0
 10 20  1  0  0  0
 10 31  1  0  0  0
 11 12  1  0  0  0
 11 32  1  0  0  0
 11 33  1  0  0  0
 12 13  2  0  0  0
 12 14  1  0  0  0
 14 15  2  0  0  0
 14 20  1  0  0  0
 15 16  1  0  0  0
 15 34  1  0  0  0
 16 17  1  0  0  0
 16 18  2  0  0  0
 18 19  1  0  0  0
 18 35  1  0  0  0
 19 20  2  0  0  0
 19 36  1  0  0  0
 22 23  1  0  0  0
 22 24  2  0  0  0
 24 25  1  0  0  0
M  END
> <energy>
62.0656

> <i_ionizer_Ion_state_n>
0

> <i_ionizer_Tot_Q>
0

> <s_ionizer_Ion_centers>


> <s_ionizer_Ion_types>


> <s_ionizer_Ion_ctrs_in>


> <r_ionizer_Ionization_penalty>
0

> <r_ionizer_Ionization_penalty_charging>
0

> <r_ionizer_Ionization_penalty_neutral>
0

$$$$
ZINC001211860743
                    3D
 Schrodinger Suite 2019-4.
 36 39  0  0  1  0            999 V2000
   -5.9084   -1.2368    0.4743 C   0  0  0  0  0  0
   -4.6124   -0.4914    0.3511 C   0  0  0  0  0  0
   -3.9171   -0.0501    1.4841 C   0  0  0  0  0  0
   -2.6897    0.6129    1.3471 C   0  0  0  0  0  0
   -2.1485    0.8427    0.0753 C   0  0  0  0  0  0
   -0.8604    1.4854   -0.0644 C   0  0  0  0  0  0
   -0.6478    2.6157   -0.7542 N   0  0  0  0  0  0
    0.7395    2.7696   -0.7117 O   0  0  0  0  0  0
    1.2188    1.7190    0.0098 C   0  0  0  0  0  0
    2.6977    1.5575    0.0758 C   0  0  1  0  0  0
    3.1820    1.4376    1.5376 C   0  0  0  0  0  0
    3.6035   -0.0075    1.6844 C   0  0  0  0  0  0
    3.9962   -0.5486    2.7035 O   0  0  0  0  0  0
    3.5327   -0.6757    0.3933 C   0  0  0  0  0  0
    3.8168   -1.9917    0.0840 C   0  0  0  0  0  0
    3.6982   -2.3643   -1.2525 C   0  0  0  0  0  0
    4.0217   -3.9895   -1.7154 Cl  0  0  0  0  0  0
    3.3118   -1.4384   -2.2332 C   0  0  0  0  0  0
    3.0078   -0.1173   -1.8837 C   0  0  0  0  0  0
    3.1088    0.2506   -0.5504 C   0  0  0  0  0  0
    0.2750    0.9287    0.4715 N   0  0  0  0  0  0
   -2.8358    0.3943   -1.0522 C   0  0  0  0  0  0
   -2.3270    0.5622   -2.2835 F   0  0  0  0  0  0
   -4.0506   -0.2726   -0.9100 C   0  0  0  0  0  0
   -4.6850   -0.7241   -2.0014 F   0  0  0  0  0  0
   -6.5525   -1.0591   -0.3938 H   0  0  0  0  0  0
   -6.4713   -0.9132    1.3554 H   0  0  0  0  0  0
   -5.7243   -2.3127    0.5490 H   0  0  0  0  0  0
   -4.3160   -0.2229    2.4831 H   0  0  0  0  0  0
   -2.1530    0.9457    2.2354 H   0  0  0  0  0  0
    3.2086    2.3884   -0.4252 H   0  0  0  0  0  0
    4.0596    2.0720    1.7068 H   0  0  0  0  0  0
    2.4045    1.6787    2.2677 H   0  0  0  0  0  0
    4.1144   -2.6918    0.8546 H   0  0  0  0  0  0
    3.2258   -1.7450   -3.2730 H   0  0  0  0  0  0
    2.6764    0.5918   -2.6391 H   0  0  0  0  0  0
  1  2  1  0  0  0
  1 26  1  0  0  0
  1 27  1  0  0  0
  1 28  1  0  0  0
  2  3  2  0  0  0
  2 24  1  0  0  0
  3  4  1  0  0  0
  3 29  1  0  0  0
  4  5  2  0  0  0
  4 30  1  0  0  0
  5  6  1  0  0  0
  5 22  1  0  0  0
  6  7  2  0  0  0
  6 21  1  0  0  0
  7  8  1  0  0  0
  8  9  1  0  0  0
  9 10  1  0  0  0
  9 21  2  0  0  0
 10 11  1  0  0  0
 10 20  1  0  0  0
 10 31  1  0  0  0
 11 12  1  0  0  0
 11 32  1  0  0  0
 11 33  1  0  0  0
 12 13  2  0  0  0
 12 14  1  0  0  0
 14 15  2  0  0  0
 14 20  1  0  0  0
 15 16  1  0  0  0
 15 34  1  0  0  0
 16 17  1  0  0  0
 16 18  2  0  0  0
 18 19  1  0  0  0
 18 35  1  0  0  0
 19 20  2  0  0  0
 19 36  1  0  0  0
 22 23  1  0  0  0
 22 24  2  0  0  0
 24 25  1  0  0  0
M  END
> <energy>
61.8106

> <i_ionizer_Ion_state_n>
0

> <i_ionizer_Tot_Q>
0

> <s_ionizer_Ion_centers>


> <s_ionizer_Ion_types>


> <s_ionizer_Ion_ctrs_in>


> <r_ionizer_Ionization_penalty>
0

> <r_ionizer_Ionization_penalty_charging>
0

> <r_ionizer_Ionization_penalty_neutral>
0

$$$$
ZINC001211860759
                    3D
 Schrodinger Suite 2019-4.
 33 36  0  0  1  0            999 V2000
    3.1661   -2.3959   -1.8081 O   0  0  0  0  0  0
    2.7876   -1.8947   -0.7640 C   0  0  0  0  0  0
    2.0039   -2.5821    0.3247 C   0  0  0  0  0  0
    1.5814   -1.4409    1.2770 C   0  0  2  0  0  0
    0.1283   -1.1449    1.1258 C   0  0  0  0  0  0
   -0.4897   -0.2769    0.3560 N   0  0  0  0  0  0
   -1.8185   -0.5352    0.6159 C   0  0  0  0  0  0
   -2.8950    0.1679   -0.0688 C   0  0  0  0  0  0
   -4.1848   -0.3786   -0.1273 C   0  0  0  0  0  0
   -5.1900    0.2872   -0.8226 C   0  0  0  0  0  0
   -6.4170   -0.2486   -0.8758 F   0  0  0  0  0  0
   -4.9459    1.4947   -1.4631 C   0  0  0  0  0  0
   -3.6729    2.0496   -1.3920 C   0  0  0  0  0  0
   -3.3602    3.5602   -2.1559 Cl  0  0  0  0  0  0
   -2.6491    1.3968   -0.7012 C   0  0  0  0  0  0
   -2.0140   -1.5028    1.5273 N   0  0  0  0  0  0
   -0.7262   -1.9083    1.8647 O   0  0  0  0  0  0
    2.4620   -0.2906    0.8606 C   0  0  0  0  0  0
    2.6454    0.9286    1.4969 C   0  0  0  0  0  0
    3.4684    1.8829    0.8853 C   0  0  0  0  0  0
    4.0827    1.6169   -0.3503 C   0  0  0  0  0  0
    5.0762    2.8214   -1.0767 Cl  0  0  0  0  0  0
    3.9029    0.3941   -0.9891 C   0  0  0  0  0  0
    3.0987   -0.5342   -0.3530 C   0  0  0  0  0  0
    1.1574   -3.1328   -0.0956 H   0  0  0  0  0  0
    2.6793   -3.2783    0.8369 H   0  0  0  0  0  0
    1.7963   -1.7258    2.3138 H   0  0  0  0  0  0
   -4.4196   -1.3289    0.3466 H   0  0  0  0  0  0
   -5.7486    1.9862   -2.0040 H   0  0  0  0  0  0
   -1.6579    1.8441   -0.6573 H   0  0  0  0  0  0
    2.1615    1.1536    2.4438 H   0  0  0  0  0  0
    3.6204    2.8450    1.3707 H   0  0  0  0  0  0
    4.3706    0.1701   -1.9411 H   0  0  0  0  0  0
  1  2  2  0  0  0
  2  3  1  0  0  0
  2 24  1  0  0  0
  3  4  1  0  0  0
  3 25  1  0  0  0
  3 26  1  0  0  0
  4  5  1  0  0  0
  4 18  1  0  0  0
  4 27  1  0  0  0
  5  6  2  0  0  0
  5 17  1  0  0  0
  6  7  1  0  0  0
  7  8  1  0  0  0
  7 16  2  0  0  0
  8  9  2  0  0  0
  8 15  1  0  0  0
  9 10  1  0  0  0
  9 28  1  0  0  0
 10 11  1  0  0  0
 10 12  2  0  0  0
 12 13  1  0  0  0
 12 29  1  0  0  0
 13 14  1  0  0  0
 13 15  2  0  0  0
 15 30  1  0  0  0
 16 17  1  0  0  0
 18 19  2  0  0  0
 18 24  1  0  0  0
 19 20  1  0  0  0
 19 31  1  0  0  0
 20 21  2  0  0  0
 20 32  1  0  0  0
 21 22  1  0  0  0
 21 23  1  0  0  0
 23 24  2  0  0  0
 23 33  1  0  0  0
M  END
> <energy>
32.6147

> <i_ionizer_Ion_state_n>
0

> <i_ionizer_Tot_Q>
0

> <s_ionizer_Ion_centers>


> <s_ionizer_Ion_types>


> <s_ionizer_Ion_ctrs_in>


> <r_ionizer_Ionization_penalty>
0

> <r_ionizer_Ionization_penalty_charging>
0

> <r_ionizer_Ionization_penalty_neutral>
0

$$$$
ZINC001211860760
                    3D
 Schrodinger Suite 2019-4.
 33 36  0  0  1  0            999 V2000
    3.3311    1.5438   -2.5653 O   0  0  0  0  0  0
    2.8783    1.4517   -1.4390 C   0  0  0  0  0  0
    2.0105    2.4669   -0.7399 C   0  0  0  0  0  0
    1.6033    1.7936    0.5880 C   0  0  1  0  0  0
    0.1503    1.4734    0.5987 C   0  0  0  0  0  0
   -0.5108    0.5345   -0.0411 N   0  0  0  0  0  0
   -1.7937    0.7248    0.4068 C   0  0  0  0  0  0
   -2.8807   -0.1341   -0.0037 C   0  0  0  0  0  0
   -3.6035    0.1540   -1.1648 C   0  0  0  0  0  0
   -4.6424   -0.6881   -1.5472 C   0  0  0  0  0  0
   -5.3389   -0.4082   -2.6567 F   0  0  0  0  0  0
   -4.9723   -1.8145   -0.8028 C   0  0  0  0  0  0
   -4.2452   -2.0999    0.3489 C   0  0  0  0  0  0
   -4.6340   -3.4942    1.2792 Cl  0  0  0  0  0  0
   -3.2019   -1.2671    0.7558 C   0  0  0  0  0  0
   -1.9382    1.7439    1.2657 N   0  0  0  0  0  0
   -0.6434    2.2468    1.3937 O   0  0  0  0  0  0
    2.4606    0.5548    0.6462 C   0  0  0  0  0  0
    2.5716   -0.3625    1.6820 C   0  0  0  0  0  0
    3.3793   -1.4902    1.4896 C   0  0  0  0  0  0
    4.0614   -1.6848    0.2760 C   0  0  0  0  0  0
    5.0319   -3.0910    0.0694 Cl  0  0  0  0  0  0
    3.9591   -0.7604   -0.7599 C   0  0  0  0  0  0
    3.1544    0.3417   -0.5402 C   0  0  0  0  0  0
    2.6181    3.3584   -0.5484 H   0  0  0  0  0  0
    1.1565    2.7346   -1.3697 H   0  0  0  0  0  0
    1.8529    2.4551    1.4264 H   0  0  0  0  0  0
   -3.3687    1.0215   -1.7746 H   0  0  0  0  0  0
   -5.7866   -2.4533   -1.1290 H   0  0  0  0  0  0
   -2.6384   -1.4994    1.6569 H   0  0  0  0  0  0
    2.0342   -0.2304    2.6168 H   0  0  0  0  0  0
    3.4662   -2.2277    2.2849 H   0  0  0  0  0  0
    4.4788   -0.8934   -1.7026 H   0  0  0  0  0  0
  1  2  2  0  0  0
  2  3  1  0  0  0
  2 24  1  0  0  0
  3  4  1  0  0  0
  3 25  1  0  0  0
  3 26  1  0  0  0
  4  5  1  0  0  0
  4 18  1  0  0  0
  4 27  1  0  0  0
  5  6  2  0  0  0
  5 17  1  0  0  0
  6  7  1  0  0  0
  7  8  1  0  0  0
  7 16  2  0  0  0
  8  9  2  0  0  0
  8 15  1  0  0  0
  9 10  1  0  0  0
  9 28  1  0  0  0
 10 11  1  0  0  0
 10 12  2  0  0  0
 12 13  1  0  0  0
 12 29  1  0  0  0
 13 14  1  0  0  0
 13 15  2  0  0  0
 15 30  1  0  0  0
 16 17  1  0  0  0
 18 19  2  0  0  0
 18 24  1  0  0  0
 19 20  1  0  0  0
 19 31  1  0  0  0
 20 21  2  0  0  0
 20 32  1  0  0  0
 21 22  1  0  0  0
 21 23  1  0  0  0
 23 24  2  0  0  0
 23 33  1  0  0  0
M  END
> <energy>
36.9068

> <i_ionizer_Ion_state_n>
0

> <i_ionizer_Tot_Q>
0

> <s_ionizer_Ion_centers>


> <s_ionizer_Ion_types>


> <s_ionizer_Ion_ctrs_in>


> <r_ionizer_Ionization_penalty>
0

> <r_ionizer_Ionization_penalty_charging>
0

> <r_ionizer_Ionization_penalty_neutral>
0

$$$$
ZINC001211860804
                    3D
 Schrodinger Suite 2019-4.
 43 46  0  0  1  0            999 V2000
   -0.4819    3.2582    2.1890 C   0  0  0  0  0  0
   -0.5005    1.8030    2.6474 C   0  0  0  0  0  0
    0.9228    1.2778    2.8113 C   0  0  0  0  0  0
   -1.1725    1.0504    1.6228 O   0  0  0  0  0  0
   -1.9474    0.0211    2.0951 C   0  0  0  0  0  0
   -3.0273    0.3153    2.9425 C   0  0  0  0  0  0
   -3.8716   -0.6976    3.3953 C   0  0  0  0  0  0
   -3.6587   -2.0070    2.9791 C   0  0  0  0  0  0
   -2.6097   -2.3023    2.1017 C   0  0  0  0  0  0
   -1.7417   -1.2948    1.6355 C   0  0  0  0  0  0
   -0.6924   -1.6416    0.6713 C   0  0  0  0  0  0
   -0.7115   -2.7612   -0.0774 N   0  0  0  0  0  0
    0.3888   -2.6298   -0.9184 O   0  0  0  0  0  0
    1.0027   -1.4637   -0.5725 C   0  0  0  0  0  0
    2.1611   -0.9914   -1.3858 C   0  0  1  0  0  0
    2.8996   -2.1059   -2.1588 C   0  0  0  0  0  0
    2.5825   -1.8448   -3.6113 C   0  0  0  0  0  0
    2.8751   -2.5581   -4.5537 O   0  0  0  0  0  0
    1.9119   -0.5597   -3.7442 C   0  0  0  0  0  0
    1.5139    0.0891   -4.8986 C   0  0  0  0  0  0
    0.8972    1.3281   -4.7468 C   0  0  0  0  0  0
    0.3399    2.1818   -6.1339 Cl  0  0  0  0  0  0
    0.7090    1.8908   -3.4713 C   0  0  0  0  0  0
    1.1214    1.2076   -2.3212 C   0  0  0  0  0  0
    1.7197   -0.0372   -2.4692 C   0  0  0  0  0  0
    0.4063   -0.8482    0.4215 N   0  0  0  0  0  0
   -0.0203    3.3544    1.2006 H   0  0  0  0  0  0
    0.0639    3.8940    2.8939 H   0  0  0  0  0  0
   -1.5037    3.6397    2.1010 H   0  0  0  0  0  0
   -1.0060    1.7541    3.6206 H   0  0  0  0  0  0
    1.4914    1.8862    3.5216 H   0  0  0  0  0  0
    0.9126    0.2452    3.1750 H   0  0  0  0  0  0
    1.4547    1.2751    1.8545 H   0  0  0  0  0  0
   -3.2326    1.3399    3.2377 H   0  0  0  0  0  0
   -4.7003   -0.4629    4.0571 H   0  0  0  0  0  0
   -4.3177   -2.7999    3.3228 H   0  0  0  0  0  0
   -2.4777   -3.3342    1.7777 H   0  0  0  0  0  0
    2.8735   -0.4888   -0.7215 H   0  0  0  0  0  0
    2.5993   -3.1185   -1.8747 H   0  0  0  0  0  0
    3.9842   -2.0025   -2.0335 H   0  0  0  0  0  0
    1.6724   -0.3554   -5.8749 H   0  0  0  0  0  0
    0.2203    2.8577   -3.3709 H   0  0  0  0  0  0
    0.9494    1.6360   -1.3366 H   0  0  0  0  0  0
  1  2  1  0  0  0
  1 27  1  0  0  0
  1 28  1  0  0  0
  1 29  1  0  0  0
  2  3  1  0  0  0
  2  4  1  0  0  0
  2 30  1  0  0  0
  3 31  1  0  0  0
  3 32  1  0  0  0
  3 33  1  0  0  0
  4  5  1  0  0  0
  5  6  2  0  0  0
  5 10  1  0  0  0
  6  7  1  0  0  0
  6 34  1  0  0  0
  7  8  2  0  0  0
  7 35  1  0  0  0
  8  9  1  0  0  0
  8 36  1  0  0  0
  9 10  2  0  0  0
  9 37  1  0  0  0
 10 11  1  0  0  0
 11 12  2  0  0  0
 11 26  1  0  0  0
 12 13  1  0  0  0
 13 14  1  0  0  0
 14 15  1  0  0  0
 14 26  2  0  0  0
 15 16  1  0  0  0
 15 25  1  0  0  0
 15 38  1  0  0  0
 16 17  1  0  0  0
 16 39  1  0  0  0
 16 40  1  0  0  0
 17 18  2  0  0  0
 17 19  1  0  0  0
 19 20  2  0  0  0
 19 25  1  0  0  0
 20 21  1  0  0  0
 20 41  1  0  0  0
 21 22  1  0  0  0
 21 23  2  0  0  0
 23 24  1  0  0  0
 23 42  1  0  0  0
 24 25  2  0  0  0
 24 43  1  0  0  0
M  END
> <energy>
76.6992

> <i_ionizer_Ion_state_n>
0

> <i_ionizer_Tot_Q>
0

> <s_ionizer_Ion_centers>


> <s_ionizer_Ion_types>


> <s_ionizer_Ion_ctrs_in>


> <r_ionizer_Ionization_penalty>
0

> <r_ionizer_Ionization_penalty_charging>
0

> <r_ionizer_Ionization_penalty_neutral>
0

$$$$
ZINC001211860805
                    3D
 Schrodinger Suite 2019-4.
 43 46  0  0  1  0            999 V2000
   -3.2357    1.3385   -0.1991 C   0  0  0  0  0  0
   -3.3510   -0.1818   -0.2642 C   0  0  0  0  0  0
   -3.7916   -0.6390   -1.6480 C   0  0  0  0  0  0
   -2.0577   -0.7564   -0.0303 O   0  0  0  0  0  0
   -1.9255   -1.3015    1.2187 C   0  0  0  0  0  0
   -2.6896   -2.4222    1.5696 C   0  0  0  0  0  0
   -2.5777   -2.9741    2.8445 C   0  0  0  0  0  0
   -1.6936   -2.4162    3.7643 C   0  0  0  0  0  0
   -0.9069   -1.3172    3.4055 C   0  0  0  0  0  0
   -0.9964   -0.7603    2.1200 C   0  0  0  0  0  0
   -0.1217    0.3429    1.7484 C   0  0  0  0  0  0
    0.1999    1.3571    2.5722 N   0  0  0  0  0  0
    1.0875    2.1279    1.8202 O   0  0  0  0  0  0
    1.2318    1.4941    0.6222 C   0  0  0  0  0  0
    2.1736    2.0943   -0.3633 C   0  0  2  0  0  0
    1.4316    2.5236   -1.6482 C   0  0  0  0  0  0
    1.7581    1.4423   -2.6509 C   0  0  0  0  0  0
    1.2405    1.2863   -3.7414 O   0  0  0  0  0  0
    2.8763    0.6519   -2.1550 C   0  0  0  0  0  0
    3.5799   -0.3464   -2.8037 C   0  0  0  0  0  0
    4.6332   -0.9310   -2.1060 C   0  0  0  0  0  0
    5.5461   -2.1906   -2.8431 Cl  0  0  0  0  0  0
    4.9599   -0.5126   -0.8033 C   0  0  0  0  0  0
    4.2265    0.4979   -0.1711 C   0  0  0  0  0  0
    3.1716    1.0769   -0.8616 C   0  0  0  0  0  0
    0.5135    0.3994    0.5270 N   0  0  0  0  0  0
   -4.1899    1.8151   -0.4434 H   0  0  0  0  0  0
   -2.4698    1.7106   -0.8880 H   0  0  0  0  0  0
   -2.9433    1.6592    0.8057 H   0  0  0  0  0  0
   -4.0985   -0.5094    0.4684 H   0  0  0  0  0  0
   -3.0533   -0.3541   -2.4048 H   0  0  0  0  0  0
   -4.7618   -0.2144   -1.9203 H   0  0  0  0  0  0
   -3.8649   -1.7320   -1.6782 H   0  0  0  0  0  0
   -3.3723   -2.8672    0.8503 H   0  0  0  0  0  0
   -3.1730   -3.8416    3.1160 H   0  0  0  0  0  0
   -1.6065   -2.8420    4.7612 H   0  0  0  0  0  0
   -0.2036   -0.9094    4.1271 H   0  0  0  0  0  0
    2.6904    2.9588    0.0707 H   0  0  0  0  0  0
    0.3510    2.6266   -1.5121 H   0  0  0  0  0  0
    1.8466    3.4608   -2.0356 H   0  0  0  0  0  0
    3.3129   -0.6509   -3.8110 H   0  0  0  0  0  0
    5.7828   -0.9897   -0.2737 H   0  0  0  0  0  0
    4.4704    0.7954    0.8443 H   0  0  0  0  0  0
  1  2  1  0  0  0
  1 27  1  0  0  0
  1 28  1  0  0  0
  1 29  1  0  0  0
  2  3  1  0  0  0
  2  4  1  0  0  0
  2 30  1  0  0  0
  3 31  1  0  0  0
  3 32  1  0  0  0
  3 33  1  0  0  0
  4  5  1  0  0  0
  5  6  2  0  0  0
  5 10  1  0  0  0
  6  7  1  0  0  0
  6 34  1  0  0  0
  7  8  2  0  0  0
  7 35  1  0  0  0
  8  9  1  0  0  0
  8 36  1  0  0  0
  9 10  2  0  0  0
  9 37  1  0  0  0
 10 11  1  0  0  0
 11 12  2  0  0  0
 11 26  1  0  0  0
 12 13  1  0  0  0
 13 14  1  0  0  0
 14 15  1  0  0  0
 14 26  2  0  0  0
 15 16  1  0  0  0
 15 25  1  0  0  0
 15 38  1  0  0  0
 16 17  1  0  0  0
 16 39  1  0  0  0
 16 40  1  0  0  0
 17 18  2  0  0  0
 17 19  1  0  0  0
 19 20  2  0  0  0
 19 25  1  0  0  0
 20 21  1  0  0  0
 20 41  1  0  0  0
 21 22  1  0  0  0
 21 23  2  0  0  0
 23 24  1  0  0  0
 23 42  1  0  0  0
 24 25  2  0  0  0
 24 43  1  0  0  0
M  END
> <energy>
75.875

> <i_ionizer_Ion_state_n>
0

> <i_ionizer_Tot_Q>
0

> <s_ionizer_Ion_centers>


> <s_ionizer_Ion_types>


> <s_ionizer_Ion_ctrs_in>


> <r_ionizer_Ionization_penalty>
0

> <r_ionizer_Ionization_penalty_charging>
0

> <r_ionizer_Ionization_penalty_neutral>
0

$$$$
ZINC001211860814
                    3D
 Schrodinger Suite 2019-4.
 43 46  0  0  1  0            999 V2000
    3.6706   -0.5431   -3.4344 C   0  0  0  0  0  0
    3.4930    0.6590   -2.5081 C   0  0  0  0  0  0
    2.3043    1.4966   -2.9886 C   0  0  0  0  0  0
    3.3241    0.1225   -1.1844 O   0  0  0  0  0  0
    2.9274    1.0486   -0.2620 C   0  0  0  0  0  0
    3.7203    2.1164    0.1288 C   0  0  0  0  0  0
    3.2192    3.0320    1.0581 C   0  0  0  0  0  0
    1.9416    2.8547    1.6132 C   0  0  0  0  0  0
    1.1509    1.7670    1.2306 C   0  0  0  0  0  0
   -0.1899    1.5361    1.7450 C   0  0  0  0  0  0
   -0.7554    2.1476    2.8003 N   0  0  0  0  0  0
   -2.0262    1.5589    2.8817 O   0  0  0  0  0  0
   -2.0947    0.6551    1.8664 C   0  0  0  0  0  0
   -3.3615   -0.0972    1.6639 C   0  0  1  0  0  0
   -3.9785    0.2709    0.2929 C   0  0  0  0  0  0
   -3.6182   -0.8925   -0.5966 C   0  0  0  0  0  0
   -3.7404   -0.9374   -1.8069 O   0  0  0  0  0  0
   -3.1743   -2.0093    0.2206 C   0  0  0  0  0  0
   -2.8835   -3.3000   -0.1708 C   0  0  0  0  0  0
   -2.4920   -4.1940    0.8251 C   0  0  0  0  0  0
   -2.0744   -5.8074    0.3998 Cl  0  0  0  0  0  0
   -2.4362   -3.7951    2.1732 C   0  0  0  0  0  0
   -2.7373   -2.4744    2.5382 C   0  0  0  0  0  0
   -3.1021   -1.5801    1.5434 C   0  0  0  0  0  0
   -1.0031    0.6023    1.1458 N   0  0  0  0  0  0
    1.6626    0.8642    0.2885 C   0  0  0  0  0  0
    2.7306   -1.0952   -3.5520 H   0  0  0  0  0  0
    4.4000   -1.2522   -3.0300 H   0  0  0  0  0  0
    4.0074   -0.2245   -4.4230 H   0  0  0  0  0  0
    4.4146    1.2499   -2.5337 H   0  0  0  0  0  0
    2.2328    2.4393   -2.4309 H   0  0  0  0  0  0
    1.3596    0.9562   -2.8401 H   0  0  0  0  0  0
    2.4038    1.7474   -4.0493 H   0  0  0  0  0  0
    4.7209    2.2408   -0.2712 H   0  0  0  0  0  0
    3.8243    3.8845    1.3531 H   0  0  0  0  0  0
    1.5863    3.5796    2.3425 H   0  0  0  0  0  0
   -4.0686    0.1012    2.4699 H   0  0  0  0  0  0
   -5.0720    0.3120    0.3600 H   0  0  0  0  0  0
   -3.5889    1.2103   -0.1199 H   0  0  0  0  0  0
   -2.9617   -3.5954   -1.2109 H   0  0  0  0  0  0
   -2.1372   -4.5056    2.9427 H   0  0  0  0  0  0
   -2.6665   -2.1715    3.5794 H   0  0  0  0  0  0
    1.0686    0.0218   -0.0501 H   0  0  0  0  0  0
  1  2  1  0  0  0
  1 27  1  0  0  0
  1 28  1  0  0  0
  1 29  1  0  0  0
  2  3  1  0  0  0
  2  4  1  0  0  0
  2 30  1  0  0  0
  3 31  1  0  0  0
  3 32  1  0  0  0
  3 33  1  0  0  0
  4  5  1  0  0  0
  5  6  2  0  0  0
  5 26  1  0  0  0
  6  7  1  0  0  0
  6 34  1  0  0  0
  7  8  2  0  0  0
  7 35  1  0  0  0
  8  9  1  0  0  0
  8 36  1  0  0  0
  9 10  1  0  0  0
  9 26  2  0  0  0
 10 11  2  0  0  0
 10 25  1  0  0  0
 11 12  1  0  0  0
 12 13  1  0  0  0
 13 14  1  0  0  0
 13 25  2  0  0  0
 14 15  1  0  0  0
 14 24  1  0  0  0
 14 37  1  0  0  0
 15 16  1  0  0  0
 15 38  1  0  0  0
 15 39  1  0  0  0
 16 17  2  0  0  0
 16 18  1  0  0  0
 18 19  2  0  0  0
 18 24  1  0  0  0
 19 20  1  0  0  0
 19 40  1  0  0  0
 20 21  1  0  0  0
 20 22  2  0  0  0
 22 23  1  0  0  0
 22 41  1  0  0  0
 23 24  2  0  0  0
 23 42  1  0  0  0
 26 43  1  0  0  0
M  END
> <energy>
64.5693

> <i_ionizer_Ion_state_n>
0

> <i_ionizer_Tot_Q>
0

> <s_ionizer_Ion_centers>


> <s_ionizer_Ion_types>


> <s_ionizer_Ion_ctrs_in>


> <r_ionizer_Ionization_penalty>
0

> <r_ionizer_Ionization_penalty_charging>
0

> <r_ionizer_Ionization_penalty_neutral>
0

$$$$
ZINC001211860815
                    3D
 Schrodinger Suite 2019-4.
 43 46  0  0  1  0            999 V2000
    4.0799    0.9370    1.4674 C   0  0  0  0  0  0
    3.5840    0.4233    0.1214 C   0  0  0  0  0  0
    4.2906    1.1090   -1.0416 C   0  0  0  0  0  0
    3.8593   -0.9856    0.0500 O   0  0  0  0  0  0
    2.7694   -1.8075    0.1133 C   0  0  0  0  0  0
    2.9077   -2.9841    0.8437 C   0  0  0  0  0  0
    1.8308   -3.8627    0.9692 C   0  0  0  0  0  0
    0.6149   -3.5697    0.3489 C   0  0  0  0  0  0
    0.4806   -2.4057   -0.4193 C   0  0  0  0  0  0
   -0.7895   -2.0146   -1.0013 C   0  0  0  0  0  0
   -1.8057   -2.8479   -1.2785 N   0  0  0  0  0  0
   -2.8566   -1.9876   -1.6035 O   0  0  0  0  0  0
   -2.3670   -0.7208   -1.4930 C   0  0  0  0  0  0
   -3.3484    0.4022   -1.5104 C   0  0  2  0  0  0
   -2.8422    1.5766   -2.3761 C   0  0  0  0  0  0
   -2.2574    2.5501   -1.3786 C   0  0  0  0  0  0
   -1.5666    3.5246   -1.6291 O   0  0  0  0  0  0
   -2.7046    2.1901   -0.0382 C   0  0  0  0  0  0
   -2.4510    2.8336    1.1585 C   0  0  0  0  0  0
   -2.9828    2.2547    2.3076 C   0  0  0  0  0  0
   -2.6557    2.9653    3.8443 Cl  0  0  0  0  0  0
   -3.7612    1.0857    2.2420 C   0  0  0  0  0  0
   -3.9881    0.4494    1.0166 C   0  0  0  0  0  0
   -3.4341    1.0071   -0.1275 C   0  0  0  0  0  0
   -1.0882   -0.6837   -1.1994 N   0  0  0  0  0  0
    1.5751   -1.5417   -0.5479 C   0  0  0  0  0  0
    3.9846    2.0253    1.5423 H   0  0  0  0  0  0
    3.4945    0.4820    2.2727 H   0  0  0  0  0  0
    5.1208    0.6546    1.6421 H   0  0  0  0  0  0
    2.5188    0.6711    0.0630 H   0  0  0  0  0  0
    4.1338    2.1916   -1.0167 H   0  0  0  0  0  0
    5.3668    0.9077   -1.0330 H   0  0  0  0  0  0
    3.9043    0.7351   -1.9958 H   0  0  0  0  0  0
    3.8531   -3.2027    1.3354 H   0  0  0  0  0  0
    1.9410   -4.7673    1.5601 H   0  0  0  0  0  0
   -0.2282   -4.2386    0.4906 H   0  0  0  0  0  0
   -4.3325    0.0629   -1.8568 H   0  0  0  0  0  0
   -2.1010    1.2770   -3.1208 H   0  0  0  0  0  0
   -3.6810    2.0770   -2.8738 H   0  0  0  0  0  0
   -1.8458    3.7349    1.1898 H   0  0  0  0  0  0
   -4.1548    0.6388    3.1531 H   0  0  0  0  0  0
   -4.5430   -0.4865    0.9838 H   0  0  0  0  0  0
    1.4755   -0.6596   -1.1745 H   0  0  0  0  0  0
  1  2  1  0  0  0
  1 27  1  0  0  0
  1 28  1  0  0  0
  1 29  1  0  0  0
  2  3  1  0  0  0
  2  4  1  0  0  0
  2 30  1  0  0  0
  3 31  1  0  0  0
  3 32  1  0  0  0
  3 33  1  0  0  0
  4  5  1  0  0  0
  5  6  2  0  0  0
  5 26  1  0  0  0
  6  7  1  0  0  0
  6 34  1  0  0  0
  7  8  2  0  0  0
  7 35  1  0  0  0
  8  9  1  0  0  0
  8 36  1  0  0  0
  9 10  1  0  0  0
  9 26  2  0  0  0
 10 11  2  0  0  0
 10 25  1  0  0  0
 11 12  1  0  0  0
 12 13  1  0  0  0
 13 14  1  0  0  0
 13 25  2  0  0  0
 14 15  1  0  0  0
 14 24  1  0  0  0
 14 37  1  0  0  0
 15 16  1  0  0  0
 15 38  1  0  0  0
 15 39  1  0  0  0
 16 17  2  0  0  0
 16 18  1  0  0  0
 18 19  2  0  0  0
 18 24  1  0  0  0
 19 20  1  0  0  0
 19 40  1  0  0  0
 20 21  1  0  0  0
 20 22  2  0  0  0
 22 23  1  0  0  0
 22 41  1  0  0  0
 23 24  2  0  0  0
 23 42  1  0  0  0
 26 43  1  0  0  0
M  END
> <energy>
64.5417

> <i_ionizer_Ion_state_n>
0

> <i_ionizer_Tot_Q>
0

> <s_ionizer_Ion_centers>


> <s_ionizer_Ion_types>


> <s_ionizer_Ion_ctrs_in>


> <r_ionizer_Ionization_penalty>
0

> <r_ionizer_Ionization_penalty_charging>
0

> <r_ionizer_Ionization_penalty_neutral>
0

$$$$
ZINC001211860826
                    3D
 Schrodinger Suite 2019-4.
 38 42  0  0  1  0            999 V2000
    5.2958    0.3267   -2.3351 O   0  0  0  0  0  0
    4.3278    0.0158   -1.6639 C   0  0  0  0  0  0
    2.9046    0.4583   -1.8912 C   0  0  0  0  0  0
    2.0788   -0.4269   -0.9394 C   0  0  2  0  0  0
    0.9641    0.2942   -0.2804 C   0  0  0  0  0  0
   -0.3198    0.0332   -0.3374 N   0  0  0  0  0  0
   -0.8664    0.9948    0.4807 C   0  0  0  0  0  0
   -2.3008    1.0587    0.7470 C   0  0  0  0  0  0
   -2.7168    1.3930    2.0492 C   0  0  0  0  0  0
   -4.0677    1.4097    2.3814 C   0  0  0  0  0  0
   -5.0210    1.0969    1.4169 C   0  0  0  0  0  0
   -4.6435    0.7761    0.1034 C   0  0  0  0  0  0
   -5.6174    0.4750   -0.8560 C   0  0  0  0  0  0
   -5.2247    0.1766   -2.1479 C   0  0  0  0  0  0
   -3.9423    0.1596   -2.5486 N   0  0  0  0  0  0
   -3.0124    0.4493   -1.6049 C   0  0  0  0  0  0
   -3.2752    0.7581   -0.2537 C   0  0  0  0  0  0
    0.0454    1.8107    1.0380 N   0  0  0  0  0  0
    1.2612    1.3514    0.5267 O   0  0  0  0  0  0
    3.1001   -1.0225   -0.0068 C   0  0  0  0  0  0
    2.8922   -1.7791    1.1390 C   0  0  0  0  0  0
    4.0060   -2.3326    1.7840 C   0  0  0  0  0  0
    5.3009   -2.1336    1.2739 C   0  0  0  0  0  0
    6.6442   -2.8508    2.0769 Cl  0  0  0  0  0  0
    5.5113   -1.3694    0.1289 C   0  0  0  0  0  0
    4.3942   -0.8257   -0.4777 C   0  0  0  0  0  0
    2.6166    0.2798   -2.9311 H   0  0  0  0  0  0
    2.8228    1.5274   -1.6673 H   0  0  0  0  0  0
    1.6516   -1.2555   -1.5210 H   0  0  0  0  0  0
   -1.9855    1.6246    2.8221 H   0  0  0  0  0  0
   -4.3779    1.6583    3.3937 H   0  0  0  0  0  0
   -6.0721    1.1089    1.6992 H   0  0  0  0  0  0
   -6.6739    0.4751   -0.6107 H   0  0  0  0  0  0
   -5.9543   -0.0612   -2.9152 H   0  0  0  0  0  0
   -2.0008    0.4351   -1.9995 H   0  0  0  0  0  0
    1.8914   -1.9546    1.5272 H   0  0  0  0  0  0
    3.8633   -2.9304    2.6815 H   0  0  0  0  0  0
    6.5003   -1.2049   -0.2818 H   0  0  0  0  0  0
  1  2  2  0  0  0
  2  3  1  0  0  0
  2 26  1  0  0  0
  3  4  1  0  0  0
  3 27  1  0  0  0
  3 28  1  0  0  0
  4  5  1  0  0  0
  4 20  1  0  0  0
  4 29  1  0  0  0
  5  6  2  0  0  0
  5 19  1  0  0  0
  6  7  1  0  0  0
  7  8  1  0  0  0
  7 18  2  0  0  0
  8  9  2  0  0  0
  8 17  1  0  0  0
  9 10  1  0  0  0
  9 30  1  0  0  0
 10 11  2  0  0  0
 10 31  1  0  0  0
 11 12  1  0  0  0
 11 32  1  0  0  0
 12 13  2  0  0  0
 12 17  1  0  0  0
 13 14  1  0  0  0
 13 33  1  0  0  0
 14 15  2  0  0  0
 14 34  1  0  0  0
 15 16  1  0  0  0
 16 17  2  0  0  0
 16 35  1  0  0  0
 18 19  1  0  0  0
 20 21  2  0  0  0
 20 26  1  0  0  0
 21 22  1  0  0  0
 21 36  1  0  0  0
 22 23  2  0  0  0
 22 37  1  0  0  0
 23 24  1  0  0  0
 23 25  1  0  0  0
 25 26  2  0  0  0
 25 38  1  0  0  0
M  END
> <energy>
74.0101

> <i_ionizer_Ion_state_n>
0

> <i_ionizer_Tot_Q>
0

> <s_ionizer_Ion_centers>


> <s_ionizer_Ion_types>


> <s_ionizer_Ion_ctrs_in>


> <r_ionizer_Ionization_penalty>
0.00741239

> <r_ionizer_Ionization_penalty_charging>
0

> <r_ionizer_Ionization_penalty_neutral>
0.00741239

$$$$
ZINC001211860827
                    3D
 Schrodinger Suite 2019-4.
 38 42  0  0  1  0            999 V2000
    5.3209   -2.6461   -0.3615 O   0  0  0  0  0  0
    4.2729   -2.0721   -0.5868 C   0  0  0  0  0  0
    2.9079   -2.7181   -0.6814 C   0  0  0  0  0  0
    1.9438   -1.5658   -1.0239 C   0  0  1  0  0  0
    0.8166   -1.3784   -0.0698 C   0  0  0  0  0  0
   -0.3138   -0.7366   -0.2748 N   0  0  0  0  0  0
   -0.8424   -0.6447    0.9912 C   0  0  0  0  0  0
   -2.0059    0.1846    1.2778 C   0  0  0  0  0  0
   -1.8913    1.1330    2.3120 C   0  0  0  0  0  0
   -2.9327    2.0161    2.5805 C   0  0  0  0  0  0
   -4.1060    1.9495    1.8325 C   0  0  0  0  0  0
   -4.2600    0.9986    0.8083 C   0  0  0  0  0  0
   -5.4494    0.9339    0.0730 C   0  0  0  0  0  0
   -5.5783   -0.0253   -0.9192 C   0  0  0  0  0  0
   -4.6108   -0.9067   -1.2319 N   0  0  0  0  0  0
   -3.4616   -0.8242   -0.5160 C   0  0  0  0  0  0
   -3.2060    0.1002    0.5174 C   0  0  0  0  0  0
   -0.1103   -1.2662    1.9291 N   0  0  0  0  0  0
    0.9893   -1.7523    1.2277 O   0  0  0  0  0  0
    2.8322   -0.3426   -1.0727 C   0  0  0  0  0  0
    2.4579    0.9753   -1.3103 C   0  0  0  0  0  0
    3.4426    1.9664   -1.2826 C   0  0  0  0  0  0
    4.7848    1.6332   -1.0352 C   0  0  0  0  0  0
    5.9765    2.8834   -1.0165 Cl  0  0  0  0  0  0
    5.1629    0.3150   -0.7972 C   0  0  0  0  0  0
    4.1640   -0.6411   -0.8174 C   0  0  0  0  0  0
    2.9286   -3.4478   -1.4964 H   0  0  0  0  0  0
    2.6774   -3.2292    0.2553 H   0  0  0  0  0  0
    1.5246   -1.7362   -2.0247 H   0  0  0  0  0  0
   -0.9769    1.2048    2.8942 H   0  0  0  0  0  0
   -2.8274    2.7600    3.3667 H   0  0  0  0  0  0
   -4.9074    2.6546    2.0549 H   0  0  0  0  0  0
   -6.2738    1.6126    0.2623 H   0  0  0  0  0  0
   -6.4913   -0.1054   -1.5074 H   0  0  0  0  0  0
   -2.7234   -1.5644   -0.8106 H   0  0  0  0  0  0
    1.4175    1.2392   -1.4987 H   0  0  0  0  0  0
    3.1553    3.0011   -1.4470 H   0  0  0  0  0  0
    6.1929    0.0419   -0.6007 H   0  0  0  0  0  0
  1  2  2  0  0  0
  2  3  1  0  0  0
  2 26  1  0  0  0
  3  4  1  0  0  0
  3 27  1  0  0  0
  3 28  1  0  0  0
  4  5  1  0  0  0
  4 20  1  0  0  0
  4 29  1  0  0  0
  5  6  2  0  0  0
  5 19  1  0  0  0
  6  7  1  0  0  0
  7  8  1  0  0  0
  7 18  2  0  0  0
  8  9  2  0  0  0
  8 17  1  0  0  0
  9 10  1  0  0  0
  9 30  1  0  0  0
 10 11  2  0  0  0
 10 31  1  0  0  0
 11 12  1  0  0  0
 11 32  1  0  0  0
 12 13  2  0  0  0
 12 17  1  0  0  0
 13 14  1  0  0  0
 13 33  1  0  0  0
 14 15  2  0  0  0
 14 34  1  0  0  0
 15 16  1  0  0  0
 16 17  2  0  0  0
 16 35  1  0  0  0
 18 19  1  0  0  0
 20 21  2  0  0  0
 20 26  1  0  0  0
 21 22  1  0  0  0
 21 36  1  0  0  0
 22 23  2  0  0  0
 22 37  1  0  0  0
 23 24  1  0  0  0
 23 25  1  0  0  0
 25 26  2  0  0  0
 25 38  1  0  0  0
M  END
> <energy>
75.016

> <i_ionizer_Ion_state_n>
0

> <i_ionizer_Tot_Q>
0

> <s_ionizer_Ion_centers>


> <s_ionizer_Ion_types>


> <s_ionizer_Ion_ctrs_in>


> <r_ionizer_Ionization_penalty>
0.00741239

> <r_ionizer_Ionization_penalty_charging>
0

> <r_ionizer_Ionization_penalty_neutral>
0.00741239

$$$$
ZINC001211860851
                    3D
 Schrodinger Suite 2019-4.
 40 43  0  0  1  0            999 V2000
    6.0370    1.0298   -0.8342 C   0  0  0  0  0  0
    4.7674    0.2253   -0.6467 C   0  0  0  0  0  0
    5.0133   -0.8456    0.2737 O   0  0  0  0  0  0
    3.8963   -1.5094    0.7064 C   0  0  0  0  0  0
    4.0943   -2.4426    1.7244 C   0  0  0  0  0  0
    3.0076   -3.1311    2.2748 C   0  0  0  0  0  0
    1.7117   -2.8786    1.8166 C   0  0  0  0  0  0
    1.5049   -1.9576    0.7846 C   0  0  0  0  0  0
    0.1746   -1.5902    0.3187 C   0  0  0  0  0  0
   -0.9474   -2.2963    0.5132 N   0  0  0  0  0  0
   -1.9481   -1.5029   -0.0531 O   0  0  0  0  0  0
   -1.3314   -0.3767   -0.5144 C   0  0  0  0  0  0
   -2.1577    0.7291   -1.0586 C   0  0  1  0  0  0
   -2.8293    0.4010   -2.4028 C   0  0  0  0  0  0
   -4.1376    1.1513   -2.3371 C   0  0  0  0  0  0
   -4.9039    1.3596   -3.2630 O   0  0  0  0  0  0
   -4.3953    1.5561   -0.9632 C   0  0  0  0  0  0
   -5.5253    2.1562   -0.4476 C   0  0  0  0  0  0
   -5.5516    2.3863    0.9212 C   0  0  0  0  0  0
   -6.9262    3.1428    1.6297 Cl  0  0  0  0  0  0
   -4.4748    2.0061    1.7363 C   0  0  0  0  0  0
   -3.3277    1.4243    1.1812 C   0  0  0  0  0  0
   -3.2941    1.2068   -0.1889 C   0  0  0  0  0  0
   -0.0310   -0.3989   -0.3425 N   0  0  0  0  0  0
    2.6052   -1.2954    0.2223 C   0  0  0  0  0  0
    6.3898    1.4232    0.1237 H   0  0  0  0  0  0
    6.8369    0.4171   -1.2563 H   0  0  0  0  0  0
    5.8672    1.8738   -1.5096 H   0  0  0  0  0  0
    3.9977    0.9017   -0.2574 H   0  0  0  0  0  0
    4.4498   -0.1933   -1.6071 H   0  0  0  0  0  0
    5.0966   -2.6158    2.1057 H   0  0  0  0  0  0
    3.1785   -3.8401    3.0792 H   0  0  0  0  0  0
    0.8737   -3.3831    2.2945 H   0  0  0  0  0  0
   -1.5010    1.5975   -1.2096 H   0  0  0  0  0  0
   -2.2275    0.7590   -3.2460 H   0  0  0  0  0  0
   -3.0418   -0.6676   -2.5282 H   0  0  0  0  0  0
   -6.3516    2.4261   -1.0918 H   0  0  0  0  0  0
   -4.5230    2.1800    2.8122 H   0  0  0  0  0  0
   -2.4903    1.1622    1.8236 H   0  0  0  0  0  0
    2.4139   -0.5903   -0.5840 H   0  0  0  0  0  0
  1  2  1  0  0  0
  1 26  1  0  0  0
  1 27  1  0  0  0
  1 28  1  0  0  0
  2  3  1  0  0  0
  2 29  1  0  0  0
  2 30  1  0  0  0
  3  4  1  0  0  0
  4  5  2  0  0  0
  4 25  1  0  0  0
  5  6  1  0  0  0
  5 31  1  0  0  0
  6  7  2  0  0  0
  6 32  1  0  0  0
  7  8  1  0  0  0
  7 33  1  0  0  0
  8  9  1  0  0  0
  8 25  2  0  0  0
  9 10  2  0  0  0
  9 24  1  0  0  0
 10 11  1  0  0  0
 11 12  1  0  0  0
 12 13  1  0  0  0
 12 24  2  0  0  0
 13 14  1  0  0  0
 13 23  1  0  0  0
 13 34  1  0  0  0
 14 15  1  0  0  0
 14 35  1  0  0  0
 14 36  1  0  0  0
 15 16  2  0  0  0
 15 17  1  0  0  0
 17 18  2  0  0  0
 17 23  1  0  0  0
 18 19  1  0  0  0
 18 37  1  0  0  0
 19 20  1  0  0  0
 19 21  2  0  0  0
 21 22  1  0  0  0
 21 38  1  0  0  0
 22 23  2  0  0  0
 22 39  1  0  0  0
 25 40  1  0  0  0
M  END
> <energy>
59.338

> <i_ionizer_Ion_state_n>
0

> <i_ionizer_Tot_Q>
0

> <s_ionizer_Ion_centers>


> <s_ionizer_Ion_types>


> <s_ionizer_Ion_ctrs_in>


> <r_ionizer_Ionization_penalty>
0

> <r_ionizer_Ionization_penalty_charging>
0

> <r_ionizer_Ionization_penalty_neutral>
0

$$$$
ZINC001211860852
                    3D
 Schrodinger Suite 2019-4.
 40 43  0  0  1  0            999 V2000
    5.5569   -1.7277    0.3190 C   0  0  0  0  0  0
    4.4305   -1.1328   -0.5002 C   0  0  0  0  0  0
    4.7544    0.2401   -0.7701 O   0  0  0  0  0  0
    3.6414    0.9284   -1.1671 C   0  0  0  0  0  0
    3.5552    1.3705   -2.4815 C   0  0  0  0  0  0
    2.3994    2.0178   -2.9153 C   0  0  0  0  0  0
    1.3358    2.2221   -2.0279 C   0  0  0  0  0  0
    1.4390    1.8123   -0.6915 C   0  0  0  0  0  0
    0.3139    1.9253    0.2240 C   0  0  0  0  0  0
    0.4314    2.1851    1.5363 N   0  0  0  0  0  0
   -0.8489    1.9535    2.0363 O   0  0  0  0  0  0
   -1.6053    1.5290    0.9841 C   0  0  0  0  0  0
   -2.9812    1.0245    1.2597 C   0  0  2  0  0  0
   -3.2351    0.6453    2.7413 C   0  0  0  0  0  0
   -3.9200   -0.6936    2.6863 C   0  0  0  0  0  0
   -4.4180   -1.2917    3.6255 O   0  0  0  0  0  0
   -3.8796   -1.2105    1.3307 C   0  0  0  0  0  0
   -4.3181   -2.4398    0.8733 C   0  0  0  0  0  0
   -4.1406   -2.7123   -0.4807 C   0  0  0  0  0  0
   -4.6747   -4.2137   -1.1295 Cl  0  0  0  0  0  0
   -3.5380   -1.7719   -1.3306 C   0  0  0  0  0  0
   -3.1265   -0.5279   -0.8403 C   0  0  0  0  0  0
   -3.3020   -0.2512    0.5095 C   0  0  0  0  0  0
   -0.9607    1.5839   -0.1625 N   0  0  0  0  0  0
    2.6168    1.1951   -0.2610 C   0  0  0  0  0  0
    6.5081   -1.6324   -0.2131 H   0  0  0  0  0  0
    5.6654   -1.1927    1.2674 H   0  0  0  0  0  0
    5.3777   -2.7841    0.5355 H   0  0  0  0  0  0
    4.3327   -1.6694   -1.4495 H   0  0  0  0  0  0
    3.4913   -1.2418    0.0556 H   0  0  0  0  0  0
    4.3737    1.1946   -3.1709 H   0  0  0  0  0  0
    2.3211    2.3483   -3.9480 H   0  0  0  0  0  0
    0.4266    2.7006   -2.3849 H   0  0  0  0  0  0
   -3.7073    1.7901    0.9627 H   0  0  0  0  0  0
   -2.3153    0.5275    3.3250 H   0  0  0  0  0  0
   -3.8925    1.3777    3.2232 H   0  0  0  0  0  0
   -4.7762   -3.1539    1.5494 H   0  0  0  0  0  0
   -3.3945   -2.0005   -2.3834 H   0  0  0  0  0  0
   -2.6650    0.1914   -1.5116 H   0  0  0  0  0  0
    2.7282    0.8843    0.7749 H   0  0  0  0  0  0
  1  2  1  0  0  0
  1 26  1  0  0  0
  1 27  1  0  0  0
  1 28  1  0  0  0
  2  3  1  0  0  0
  2 29  1  0  0  0
  2 30  1  0  0  0
  3  4  1  0  0  0
  4  5  2  0  0  0
  4 25  1  0  0  0
  5  6  1  0  0  0
  5 31  1  0  0  0
  6  7  2  0  0  0
  6 32  1  0  0  0
  7  8  1  0  0  0
  7 33  1  0  0  0
  8  9  1  0  0  0
  8 25  2  0  0  0
  9 10  2  0  0  0
  9 24  1  0  0  0
 10 11  1  0  0  0
 11 12  1  0  0  0
 12 13  1  0  0  0
 12 24  2  0  0  0
 13 14  1  0  0  0
 13 23  1  0  0  0
 13 34  1  0  0  0
 14 15  1  0  0  0
 14 35  1  0  0  0
 14 36  1  0  0  0
 15 16  2  0  0  0
 15 17  1  0  0  0
 17 18  2  0  0  0
 17 23  1  0  0  0
 18 19  1  0  0  0
 18 37  1  0  0  0
 19 20  1  0  0  0
 19 21  2  0  0  0
 21 22  1  0  0  0
 21 38  1  0  0  0
 22 23  2  0  0  0
 22 39  1  0  0  0
 25 40  1  0  0  0
M  END
> <energy>
64.2412

> <i_ionizer_Ion_state_n>
0

> <i_ionizer_Tot_Q>
0

> <s_ionizer_Ion_centers>


> <s_ionizer_Ion_types>


> <s_ionizer_Ion_ctrs_in>


> <r_ionizer_Ionization_penalty>
0

> <r_ionizer_Ionization_penalty_charging>
0

> <r_ionizer_Ionization_penalty_neutral>
0

$$$$
ZINC001211860856
                    3D
 Schrodinger Suite 2019-4.
 38 42  0  0  1  0            999 V2000
    3.8569   -4.5970   -0.0765 O   0  0  0  0  0  0
    3.1615   -3.5914   -0.0167 C   0  0  0  0  0  0
    3.6369   -2.1838    0.2987 C   0  0  0  0  0  0
    2.3859   -1.3144    0.0989 C   0  0  2  0  0  0
    2.1073   -0.2650    1.1308 C   0  0  0  0  0  0
    0.9283    0.0549    1.6205 N   0  0  0  0  0  0
    1.0147    1.4280    1.7091 C   0  0  0  0  0  0
   -0.1800    2.1872    1.3507 C   0  0  0  0  0  0
   -1.3766    1.9938    2.0506 C   0  0  0  0  0  0
   -2.5930    2.3700    1.4740 C   0  0  0  0  0  0
   -2.6313    2.9239    0.1839 C   0  0  0  0  0  0
   -3.8291    3.1999   -0.4761 C   0  0  0  0  0  0
   -3.9225    3.7096   -1.7285 N   0  0  0  0  0  0
   -2.7565    3.9881   -2.3497 C   0  0  0  0  0  0
   -1.5043    3.7559   -1.7893 C   0  0  0  0  0  0
   -1.4330    3.1925   -0.5058 C   0  0  0  0  0  0
   -0.2096    2.8369    0.0975 C   0  0  0  0  0  0
    2.2755    1.8903    1.6387 N   0  0  0  0  0  0
    3.0113    0.7560    1.2485 O   0  0  0  0  0  0
    1.2531   -2.2980   -0.1309 C   0  0  0  0  0  0
   -0.1120   -2.0478   -0.2699 C   0  0  0  0  0  0
   -0.9678   -3.1250   -0.5350 C   0  0  0  0  0  0
   -0.4647   -4.4257   -0.6700 C   0  0  0  0  0  0
   -1.5440   -5.7117   -1.0436 Cl  0  0  0  0  0  0
    0.8950   -4.6807   -0.5206 C   0  0  0  0  0  0
    1.7219   -3.6005   -0.2428 C   0  0  0  0  0  0
    4.0554   -2.1433    1.3082 H   0  0  0  0  0  0
    4.4084   -1.9259   -0.4445 H   0  0  0  0  0  0
    2.5226   -0.7710   -0.8436 H   0  0  0  0  0  0
   -1.3761    1.4919    3.0133 H   0  0  0  0  0  0
   -3.5185    2.1814    2.0154 H   0  0  0  0  0  0
   -4.7889    2.9858   -0.0102 H   0  0  0  0  0  0
   -2.8643    4.4142   -3.3429 H   0  0  0  0  0  0
   -0.6150    4.0089   -2.3646 H   0  0  0  0  0  0
    0.7266    2.9817   -0.4474 H   0  0  0  0  0  0
   -0.5343   -1.0490   -0.1767 H   0  0  0  0  0  0
   -2.0313   -2.9339   -0.6208 H   0  0  0  0  0  0
    1.2914   -5.6868   -0.6325 H   0  0  0  0  0  0
  1  2  2  0  0  0
  2  3  1  0  0  0
  2 26  1  0  0  0
  3  4  1  0  0  0
  3 27  1  0  0  0
  3 28  1  0  0  0
  4  5  1  0  0  0
  4 20  1  0  0  0
  4 29  1  0  0  0
  5  6  2  0  0  0
  5 19  1  0  0  0
  6  7  1  0  0  0
  7  8  1  0  0  0
  7 18  2  0  0  0
  8  9  1  0  0  0
  8 17  2  0  0  0
  9 10  2  0  0  0
  9 30  1  0  0  0
 10 11  1  0  0  0
 10 31  1  0  0  0
 11 12  1  0  0  0
 11 16  2  0  0  0
 12 13  2  0  0  0
 12 32  1  0  0  0
 13 14  1  0  0  0
 14 15  2  0  0  0
 14 33  1  0  0  0
 15 16  1  0  0  0
 15 34  1  0  0  0
 16 17  1  0  0  0
 17 35  1  0  0  0
 18 19  1  0  0  0
 20 21  2  0  0  0
 20 26  1  0  0  0
 21 22  1  0  0  0
 21 36  1  0  0  0
 22 23  2  0  0  0
 22 37  1  0  0  0
 23 24  1  0  0  0
 23 25  1  0  0  0
 25 26  2  0  0  0
 25 38  1  0  0  0
M  END
> <energy>
97.4675

> <i_ionizer_Ion_state_n>
0

> <i_ionizer_Tot_Q>
0

> <s_ionizer_Ion_centers>


> <s_ionizer_Ion_types>


> <s_ionizer_Ion_ctrs_in>


> <r_ionizer_Ionization_penalty>
0.00741239

> <r_ionizer_Ionization_penalty_charging>
0

> <r_ionizer_Ionization_penalty_neutral>
0.00741239

$$$$
ZINC001211860857
                    3D
 Schrodinger Suite 2019-4.
 38 42  0  0  1  0            999 V2000
    4.5734   -1.1157    2.4338 O   0  0  0  0  0  0
    3.9824   -1.2955    1.3855 C   0  0  0  0  0  0
    3.1669   -2.5120    1.0167 C   0  0  0  0  0  0
    2.5597   -2.1827   -0.3601 C   0  0  1  0  0  0
    1.0838   -1.9876   -0.2964 C   0  0  0  0  0  0
    0.3673   -1.2309    0.5046 N   0  0  0  0  0  0
   -0.8774   -1.2677   -0.0881 C   0  0  0  0  0  0
   -1.9688   -0.4070    0.3509 C   0  0  0  0  0  0
   -2.0010    0.0939    1.6579 C   0  0  0  0  0  0
   -3.0185    0.9664    2.0585 C   0  0  0  0  0  0
   -4.0115    1.3689    1.1491 C   0  0  0  0  0  0
   -5.0393    2.2532    1.4851 C   0  0  0  0  0  0
   -5.9966    2.6810    0.6290 N   0  0  0  0  0  0
   -5.9333    2.2102   -0.6320 C   0  0  0  0  0  0
   -4.9646    1.3218   -1.0746 C   0  0  0  0  0  0
   -3.9862    0.8830   -0.1724 C   0  0  0  0  0  0
   -2.9724   -0.0145   -0.5521 C   0  0  0  0  0  0
   -0.9448   -2.0778   -1.1581 N   0  0  0  0  0  0
    0.3543   -2.5582   -1.2947 O   0  0  0  0  0  0
    3.2552   -0.9081   -0.7688 C   0  0  0  0  0  0
    3.1603   -0.2358   -1.9799 C   0  0  0  0  0  0
    3.8368    0.9814   -2.1215 C   0  0  0  0  0  0
    4.5890    1.5101   -1.0569 C   0  0  0  0  0  0
    5.3932    3.0180   -1.2605 Cl  0  0  0  0  0  0
    4.6933    0.8293    0.1549 C   0  0  0  0  0  0
    4.0200   -0.3725    0.2601 C   0  0  0  0  0  0
    2.4162   -2.7187    1.7851 H   0  0  0  0  0  0
    3.8531   -3.3626    0.9354 H   0  0  0  0  0  0
    2.8072   -2.9785   -1.0716 H   0  0  0  0  0  0
   -1.2313   -0.1872    2.3747 H   0  0  0  0  0  0
   -3.0243    1.3427    3.0778 H   0  0  0  0  0  0
   -5.1208    2.6655    2.4880 H   0  0  0  0  0  0
   -6.7074    2.5788   -1.3031 H   0  0  0  0  0  0
   -4.9758    0.9871   -2.1066 H   0  0  0  0  0  0
   -2.9464   -0.3896   -1.5738 H   0  0  0  0  0  0
    2.5640   -0.6282   -2.7987 H   0  0  0  0  0  0
    3.7696    1.5233   -3.0615 H   0  0  0  0  0  0
    5.2746    1.2164    0.9844 H   0  0  0  0  0  0
  1  2  2  0  0  0
  2  3  1  0  0  0
  2 26  1  0  0  0
  3  4  1  0  0  0
  3 27  1  0  0  0
  3 28  1  0  0  0
  4  5  1  0  0  0
  4 20  1  0  0  0
  4 29  1  0  0  0
  5  6  2  0  0  0
  5 19  1  0  0  0
  6  7  1  0  0  0
  7  8  1  0  0  0
  7 18  2  0  0  0
  8  9  1  0  0  0
  8 17  2  0  0  0
  9 10  2  0  0  0
  9 30  1  0  0  0
 10 11  1  0  0  0
 10 31  1  0  0  0
 11 12  1  0  0  0
 11 16  2  0  0  0
 12 13  2  0  0  0
 12 32  1  0  0  0
 13 14  1  0  0  0
 14 15  2  0  0  0
 14 33  1  0  0  0
 15 16  1  0  0  0
 15 34  1  0  0  0
 16 17  1  0  0  0
 17 35  1  0  0  0
 18 19  1  0  0  0
 20 21  2  0  0  0
 20 26  1  0  0  0
 21 22  1  0  0  0
 21 36  1  0  0  0
 22 23  2  0  0  0
 22 37  1  0  0  0
 23 24  1  0  0  0
 23 25  1  0  0  0
 25 26  2  0  0  0
 25 38  1  0  0  0
M  END
> <energy>
73.284

> <i_ionizer_Ion_state_n>
0

> <i_ionizer_Tot_Q>
0

> <s_ionizer_Ion_centers>


> <s_ionizer_Ion_types>


> <s_ionizer_Ion_ctrs_in>


> <r_ionizer_Ionization_penalty>
0.00741239

> <r_ionizer_Ionization_penalty_charging>
0

> <r_ionizer_Ionization_penalty_neutral>
0.00741239

$$$$
ZINC001211860859
                    3D
 Schrodinger Suite 2019-4.
 33 36  0  0  1  0            999 V2000
    1.3340   -4.8133    2.1139 O   0  0  0  0  0  0
    1.0918   -3.6665    1.7654 C   0  0  0  0  0  0
    1.9235   -2.8257    0.8312 C   0  0  0  0  0  0
    1.3622   -1.4027    1.0047 C   0  0  1  0  0  0
    1.2507   -0.6046   -0.2432 C   0  0  0  0  0  0
    1.1229    0.6942   -0.3433 N   0  0  0  0  0  0
    0.7624    0.8563   -1.6670 C   0  0  0  0  0  0
    0.3475    2.1610   -2.1379 C   0  0  0  0  0  0
    1.1719    3.2499   -1.8062 C   0  0  0  0  0  0
    0.7848    4.5539   -2.0901 C   0  0  0  0  0  0
   -0.4262    4.7824   -2.7278 C   0  0  0  0  0  0
   -0.8148    6.0365   -2.9744 F   0  0  0  0  0  0
   -1.2528    3.7237   -3.0907 C   0  0  0  0  0  0
   -0.8710    2.4083   -2.7866 C   0  0  0  0  0  0
   -2.0079    1.1497   -3.1257 Cl  0  0  0  0  0  0
    0.8095   -0.2719   -2.3910 N   0  0  0  0  0  0
    1.1355   -1.2491   -1.4445 O   0  0  0  0  0  0
    0.0173   -1.6363    1.6640 C   0  0  0  0  0  0
   -1.0451   -0.7558    1.8480 C   0  0  0  0  0  0
   -2.2022   -1.2168    2.4951 C   0  0  0  0  0  0
   -2.2706   -2.5273    3.0042 C   0  0  0  0  0  0
   -3.6921   -3.0536    3.8330 Cl  0  0  0  0  0  0
   -1.2008   -3.4062    2.8423 C   0  0  0  0  0  0
   -0.0928   -2.9291    2.1644 C   0  0  0  0  0  0
    2.9703   -2.8675    1.1180 H   0  0  0  0  0  0
    1.7903   -3.2177   -0.1809 H   0  0  0  0  0  0
    2.0026   -0.8526    1.7123 H   0  0  0  0  0  0
    2.1199    3.0591   -1.2990 H   0  0  0  0  0  0
    1.4008    5.3936   -1.7863 H   0  0  0  0  0  0
   -2.1998    3.9406   -3.5780 H   0  0  0  0  0  0
   -1.0190    0.2721    1.4766 H   0  0  0  0  0  0
   -3.0552   -0.5510    2.5940 H   0  0  0  0  0  0
   -1.2476   -4.4337    3.2054 H   0  0  0  0  0  0
  1  2  2  0  0  0
  2  3  1  0  0  0
  2 24  1  0  0  0
  3  4  1  0  0  0
  3 25  1  0  0  0
  3 26  1  0  0  0
  4  5  1  0  0  0
  4 18  1  0  0  0
  4 27  1  0  0  0
  5  6  2  0  0  0
  5 17  1  0  0  0
  6  7  1  0  0  0
  7  8  1  0  0  0
  7 16  2  0  0  0
  8  9  2  0  0  0
  8 14  1  0  0  0
  9 10  1  0  0  0
  9 28  1  0  0  0
 10 11  2  0  0  0
 10 29  1  0  0  0
 11 12  1  0  0  0
 11 13  1  0  0  0
 13 14  2  0  0  0
 13 30  1  0  0  0
 14 15  1  0  0  0
 16 17  1  0  0  0
 18 19  2  0  0  0
 18 24  1  0  0  0
 19 20  1  0  0  0
 19 31  1  0  0  0
 20 21  2  0  0  0
 20 32  1  0  0  0
 21 22  1  0  0  0
 21 23  1  0  0  0
 23 24  2  0  0  0
 23 33  1  0  0  0
M  END
> <energy>
54.7125

> <i_ionizer_Ion_state_n>
0

> <i_ionizer_Tot_Q>
0

> <s_ionizer_Ion_centers>


> <s_ionizer_Ion_types>


> <s_ionizer_Ion_ctrs_in>


> <r_ionizer_Ionization_penalty>
0

> <r_ionizer_Ionization_penalty_charging>
0

> <r_ionizer_Ionization_penalty_neutral>
0

$$$$
ZINC001211860860
                    3D
 Schrodinger Suite 2019-4.
 33 36  0  0  1  0            999 V2000
    2.2846   -4.0558    2.7166 O   0  0  0  0  0  0
    1.6135   -3.2414    2.1106 C   0  0  0  0  0  0
    1.9822   -2.5767    0.8037 C   0  0  0  0  0  0
    0.6893   -1.8713    0.3654 C   0  0  2  0  0  0
    0.8829   -0.5158   -0.2105 C   0  0  0  0  0  0
    0.2939    0.0111   -1.2592 N   0  0  0  0  0  0
    0.7319    1.3118   -1.2239 C   0  0  0  0  0  0
    0.2140    2.3017   -2.1444 C   0  0  0  0  0  0
   -0.8895    3.0731   -1.7389 C   0  0  0  0  0  0
   -1.4761    3.9820   -2.6214 C   0  0  0  0  0  0
   -0.9505    4.1279   -3.9004 C   0  0  0  0  0  0
   -1.5211    4.9924   -4.7462 F   0  0  0  0  0  0
    0.1465    3.3844   -4.3177 C   0  0  0  0  0  0
    0.7272    2.4613   -3.4411 C   0  0  0  0  0  0
    2.0764    1.5426   -4.0125 Cl  0  0  0  0  0  0
    1.5425    1.5940   -0.1936 N   0  0  0  0  0  0
    1.6521    0.3764    0.4793 O   0  0  0  0  0  0
   -0.1744   -1.8832    1.6010 C   0  0  0  0  0  0
   -1.3752   -1.2191    1.8193 C   0  0  0  0  0  0
   -2.0402   -1.4267    3.0310 C   0  0  0  0  0  0
   -1.5214   -2.3100    3.9909 C   0  0  0  0  0  0
   -2.3952   -2.5665    5.4522 Cl  0  0  0  0  0  0
   -0.3175   -2.9794    3.7753 C   0  0  0  0  0  0
    0.3319   -2.7319    2.5788 C   0  0  0  0  0  0
    2.2819   -3.3343    0.0699 H   0  0  0  0  0  0
    2.8131   -1.8859    0.9796 H   0  0  0  0  0  0
    0.1947   -2.4963   -0.3900 H   0  0  0  0  0  0
   -1.3067    2.9534   -0.7408 H   0  0  0  0  0  0
   -2.3424    4.5654   -2.3247 H   0  0  0  0  0  0
    0.5238    3.5181   -5.3241 H   0  0  0  0  0  0
   -1.7958   -0.5402    1.0797 H   0  0  0  0  0  0
   -2.9751   -0.9041    3.2200 H   0  0  0  0  0  0
    0.0989   -3.6571    4.5163 H   0  0  0  0  0  0
  1  2  2  0  0  0
  2  3  1  0  0  0
  2 24  1  0  0  0
  3  4  1  0  0  0
  3 25  1  0  0  0
  3 26  1  0  0  0
  4  5  1  0  0  0
  4 18  1  0  0  0
  4 27  1  0  0  0
  5  6  2  0  0  0
  5 17  1  0  0  0
  6  7  1  0  0  0
  7  8  1  0  0  0
  7 16  2  0  0  0
  8  9  2  0  0  0
  8 14  1  0  0  0
  9 10  1  0  0  0
  9 28  1  0  0  0
 10 11  2  0  0  0
 10 29  1  0  0  0
 11 12  1  0  0  0
 11 13  1  0  0  0
 13 14  2  0  0  0
 13 30  1  0  0  0
 14 15  1  0  0  0
 16 17  1  0  0  0
 18 19  2  0  0  0
 18 24  1  0  0  0
 19 20  1  0  0  0
 19 31  1  0  0  0
 20 21  2  0  0  0
 20 32  1  0  0  0
 21 22  1  0  0  0
 21 23  1  0  0  0
 23 24  2  0  0  0
 23 33  1  0  0  0
M  END
> <energy>
52.8879

> <i_ionizer_Ion_state_n>
0

> <i_ionizer_Tot_Q>
0

> <s_ionizer_Ion_centers>


> <s_ionizer_Ion_types>


> <s_ionizer_Ion_ctrs_in>


> <r_ionizer_Ionization_penalty>
0

> <r_ionizer_Ionization_penalty_charging>
0

> <r_ionizer_Ionization_penalty_neutral>
0

$$$$
ZINC001211860912
                    3D
 Schrodinger Suite 2019-4.
 35 39  0  0  1  0            999 V2000
    3.8008    3.3538    0.1003 O   0  0  0  0  0  0
    3.2693    2.2856    0.3295 C   0  0  0  0  0  0
    1.7900    2.0143    0.3595 C   0  0  0  0  0  0
    1.6792    0.5736    0.9102 C   0  0  1  0  0  0
    0.6023   -0.1876    0.2256 C   0  0  0  0  0  0
   -0.6011    0.2381   -0.0601 N   0  0  0  0  0  0
   -1.2419   -0.9110   -0.4680 C   0  0  0  0  0  0
   -2.6766   -0.8910   -0.7156 C   0  0  0  0  0  0
   -3.4738   -2.0277   -0.5647 C   0  0  0  0  0  0
   -4.8693   -1.9495   -0.6669 C   0  0  0  0  0  0
   -5.4495   -0.6994   -0.9248 C   0  0  0  0  0  0
   -7.1116   -0.2672   -1.0713 S   0  0  0  0  0  0
   -6.6525    1.3588   -1.3370 C   0  0  0  0  0  0
   -5.3660    1.6152   -1.3420 N   0  0  0  0  0  0
   -4.6725    0.4458   -1.1059 C   0  0  0  0  0  0
   -3.2762    0.3379   -1.0142 C   0  0  0  0  0  0
   -0.4525   -1.9941   -0.4999 N   0  0  0  0  0  0
    0.7728   -1.5175   -0.0376 O   0  0  0  0  0  0
    3.0817    0.0383    0.8424 C   0  0  0  0  0  0
    3.5410   -1.2446    1.1082 C   0  0  0  0  0  0
    4.9174   -1.4779    1.1006 C   0  0  0  0  0  0
    5.8174   -0.4275    0.8669 C   0  0  0  0  0  0
    7.5045   -0.7395    0.9294 Cl  0  0  0  0  0  0
    5.3655    0.8587    0.5913 C   0  0  0  0  0  0
    3.9996    1.0518    0.5847 C   0  0  0  0  0  0
    1.2897    2.7216    1.0260 H   0  0  0  0  0  0
    1.3922    2.1197   -0.6573 H   0  0  0  0  0  0
    1.4162    0.6354    1.9711 H   0  0  0  0  0  0
   -3.0228   -2.9865   -0.3349 H   0  0  0  0  0  0
   -5.4887   -2.8300   -0.5287 H   0  0  0  0  0  0
   -7.3893    2.1323   -1.4961 H   0  0  0  0  0  0
   -2.6798    1.2359   -1.1437 H   0  0  0  0  0  0
    2.8647   -2.0676    1.3213 H   0  0  0  0  0  0
    5.2757   -2.4842    1.2870 H   0  0  0  0  0  0
    6.0445    1.6860    0.4145 H   0  0  0  0  0  0
  1  2  2  0  0  0
  2  3  1  0  0  0
  2 25  1  0  0  0
  3  4  1  0  0  0
  3 26  1  0  0  0
  3 27  1  0  0  0
  4  5  1  0  0  0
  4 19  1  0  0  0
  4 28  1  0  0  0
  5  6  2  0  0  0
  5 18  1  0  0  0
  6  7  1  0  0  0
  7  8  1  0  0  0
  7 17  2  0  0  0
  8  9  2  0  0  0
  8 16  1  0  0  0
  9 10  1  0  0  0
  9 29  1  0  0  0
 10 11  2  0  0  0
 10 30  1  0  0  0
 11 12  1  0  0  0
 11 15  1  0  0  0
 12 13  1  0  0  0
 13 14  2  0  0  0
 13 31  1  0  0  0
 14 15  1  0  0  0
 15 16  2  0  0  0
 16 32  1  0  0  0
 17 18  1  0  0  0
 19 20  2  0  0  0
 19 25  1  0  0  0
 20 21  1  0  0  0
 20 33  1  0  0  0
 21 22  2  0  0  0
 21 34  1  0  0  0
 22 23  1  0  0  0
 22 24  1  0  0  0
 24 25  2  0  0  0
 24 35  1  0  0  0
M  END
> <energy>
56.4201

> <i_ionizer_Ion_state_n>
0

> <i_ionizer_Tot_Q>
0

> <s_ionizer_Ion_centers>


> <s_ionizer_Ion_types>


> <s_ionizer_Ion_ctrs_in>


> <r_ionizer_Ionization_penalty>
0

> <r_ionizer_Ionization_penalty_charging>
0

> <r_ionizer_Ionization_penalty_neutral>
0

$$$$
ZINC001211860913
                    3D
 Schrodinger Suite 2019-4.
 35 39  0  0  1  0            999 V2000
    3.2292   -1.4077   -3.4746 O   0  0  0  0  0  0
    3.0059   -1.2807   -2.2828 C   0  0  0  0  0  0
    2.3681   -2.3061   -1.3763 C   0  0  0  0  0  0
    2.3315   -1.6423    0.0194 C   0  0  2  0  0  0
    0.9462   -1.4960    0.5401 C   0  0  0  0  0  0
   -0.1756   -1.2139   -0.0850 N   0  0  0  0  0  0
   -1.0515   -1.0097    0.9604 C   0  0  0  0  0  0
   -2.3972   -0.4957    0.7521 C   0  0  0  0  0  0
   -3.1466   -0.8826   -0.3621 C   0  0  0  0  0  0
   -4.4171   -0.3404   -0.6049 C   0  0  0  0  0  0
   -4.9080    0.6317    0.2832 C   0  0  0  0  0  0
   -6.3840    1.5179    0.2249 S   0  0  0  0  0  0
   -5.9457    2.3339    1.6653 C   0  0  0  0  0  0
   -4.7866    2.0075    2.1900 N   0  0  0  0  0  0
   -4.1833    1.0348    1.4078 C   0  0  0  0  0  0
   -2.9253    0.4477    1.6490 C   0  0  0  0  0  0
   -0.5165   -1.2285    2.1718 N   0  0  0  0  0  0
    0.8056   -1.5567    1.8949 O   0  0  0  0  0  0
    2.9940   -0.3041   -0.1918 C   0  0  0  0  0  0
    3.2402    0.6802    0.7544 C   0  0  0  0  0  0
    3.8253    1.8791    0.3316 C   0  0  0  0  0  0
    4.1616    2.0737   -1.0190 C   0  0  0  0  0  0
    4.8550    3.5730   -1.5048 Cl  0  0  0  0  0  0
    3.9345    1.0800   -1.9671 C   0  0  0  0  0  0
    3.3536   -0.0924   -1.5187 C   0  0  0  0  0  0
    1.3776   -2.5674   -1.7612 H   0  0  0  0  0  0
    2.9960   -3.2035   -1.3560 H   0  0  0  0  0  0
    2.9396   -2.2333    0.7172 H   0  0  0  0  0  0
   -2.7460   -1.6184   -1.0607 H   0  0  0  0  0  0
   -4.9962   -0.6489   -1.4709 H   0  0  0  0  0  0
   -6.5938    3.0816    2.1060 H   0  0  0  0  0  0
   -2.3612    0.7684    2.5219 H   0  0  0  0  0  0
    2.9717    0.5394    1.7985 H   0  0  0  0  0  0
    4.0069    2.6681    1.0592 H   0  0  0  0  0  0
    4.1919    1.2116   -3.0119 H   0  0  0  0  0  0
  1  2  2  0  0  0
  2  3  1  0  0  0
  2 25  1  0  0  0
  3  4  1  0  0  0
  3 26  1  0  0  0
  3 27  1  0  0  0
  4  5  1  0  0  0
  4 19  1  0  0  0
  4 28  1  0  0  0
  5  6  2  0  0  0
  5 18  1  0  0  0
  6  7  1  0  0  0
  7  8  1  0  0  0
  7 17  2  0  0  0
  8  9  2  0  0  0
  8 16  1  0  0  0
  9 10  1  0  0  0
  9 29  1  0  0  0
 10 11  2  0  0  0
 10 30  1  0  0  0
 11 12  1  0  0  0
 11 15  1  0  0  0
 12 13  1  0  0  0
 13 14  2  0  0  0
 13 31  1  0  0  0
 14 15  1  0  0  0
 15 16  2  0  0  0
 16 32  1  0  0  0
 17 18  1  0  0  0
 19 20  2  0  0  0
 19 25  1  0  0  0
 20 21  1  0  0  0
 20 33  1  0  0  0
 21 22  2  0  0  0
 21 34  1  0  0  0
 22 23  1  0  0  0
 22 24  1  0  0  0
 24 25  2  0  0  0
 24 35  1  0  0  0
M  END
> <energy>
54.9134

> <i_ionizer_Ion_state_n>
0

> <i_ionizer_Tot_Q>
0

> <s_ionizer_Ion_centers>


> <s_ionizer_Ion_types>


> <s_ionizer_Ion_ctrs_in>


> <r_ionizer_Ionization_penalty>
0

> <r_ionizer_Ionization_penalty_charging>
0

> <r_ionizer_Ionization_penalty_neutral>
0

$$$$
ZINC001211860914
                    3D
 Schrodinger Suite 2019-4.
 36 39  0  0  1  0            999 V2000
    1.2589   -2.8210    4.0194 C   0  0  0  0  0  0
    1.7911   -1.5781    3.3629 C   0  0  0  0  0  0
    3.1096   -1.1636    3.5888 C   0  0  0  0  0  0
    3.5748    0.0117    3.0058 C   0  0  0  0  0  0
    4.8448    0.3853    3.2193 F   0  0  0  0  0  0
    2.7445    0.7940    2.2116 C   0  0  0  0  0  0
    3.2484    1.9056    1.6517 F   0  0  0  0  0  0
    1.4200    0.4128    1.9869 C   0  0  0  0  0  0
    0.5332    1.2154    1.1679 C   0  0  0  0  0  0
    0.5946    2.5527    1.0692 N   0  0  0  0  0  0
   -0.3982    2.8664    0.1474 O   0  0  0  0  0  0
   -0.9730    1.6869   -0.2156 C   0  0  0  0  0  0
   -1.9593    1.7443   -1.3287 C   0  0  2  0  0  0
   -3.2619    0.9947   -0.9835 C   0  0  0  0  0  0
   -3.1796   -0.2876   -1.7762 C   0  0  0  0  0  0
   -3.9296   -1.2422   -1.6795 O   0  0  0  0  0  0
   -2.0888   -0.1968   -2.7383 C   0  0  0  0  0  0
   -1.7099   -1.1050   -3.7089 C   0  0  0  0  0  0
   -0.6089   -0.7718   -4.4959 C   0  0  0  0  0  0
   -0.0579   -1.8697   -5.7035 Cl  0  0  0  0  0  0
    0.0679    0.4472   -4.3143 C   0  0  0  0  0  0
   -0.3407    1.3490   -3.3240 C   0  0  0  0  0  0
   -1.4273    1.0086   -2.5300 C   0  0  0  0  0  0
   -0.4738    0.6478    0.4158 N   0  0  0  0  0  0
    0.9521   -0.7819    2.5650 C   0  0  0  0  0  0
    0.4977   -3.2970    3.3921 H   0  0  0  0  0  0
    0.8130   -2.5668    4.9860 H   0  0  0  0  0  0
    2.0575   -3.5536    4.1781 H   0  0  0  0  0  0
    3.7854   -1.7434    4.2113 H   0  0  0  0  0  0
   -2.1922    2.7847   -1.5853 H   0  0  0  0  0  0
   -4.1332    1.5526   -1.3453 H   0  0  0  0  0  0
   -3.3736    0.7886    0.0856 H   0  0  0  0  0  0
   -2.2475   -2.0387   -3.8415 H   0  0  0  0  0  0
    0.9337    0.6843   -4.9280 H   0  0  0  0  0  0
    0.2081    2.2741   -3.1646 H   0  0  0  0  0  0
   -0.0801   -1.0896    2.3982 H   0  0  0  0  0  0
  1  2  1  0  0  0
  1 26  1  0  0  0
  1 27  1  0  0  0
  1 28  1  0  0  0
  2  3  2  0  0  0
  2 25  1  0  0  0
  3  4  1  0  0  0
  3 29  1  0  0  0
  4  5  1  0  0  0
  4  6  2  0  0  0
  6  7  1  0  0  0
  6  8  1  0  0  0
  8  9  1  0  0  0
  8 25  2  0  0  0
  9 10  2  0  0  0
  9 24  1  0  0  0
 10 11  1  0  0  0
 11 12  1  0  0  0
 12 13  1  0  0  0
 12 24  2  0  0  0
 13 14  1  0  0  0
 13 23  1  0  0  0
 13 30  1  0  0  0
 14 15  1  0  0  0
 14 31  1  0  0  0
 14 32  1  0  0  0
 15 16  2  0  0  0
 15 17  1  0  0  0
 17 18  2  0  0  0
 17 23  1  0  0  0
 18 19  1  0  0  0
 18 33  1  0  0  0
 19 20  1  0  0  0
 19 21  2  0  0  0
 21 22  1  0  0  0
 21 34  1  0  0  0
 22 23  2  0  0  0
 22 35  1  0  0  0
 25 36  1  0  0  0
M  END
> <energy>
58.6028

> <i_ionizer_Ion_state_n>
0

> <i_ionizer_Tot_Q>
0

> <s_ionizer_Ion_centers>


> <s_ionizer_Ion_types>


> <s_ionizer_Ion_ctrs_in>


> <r_ionizer_Ionization_penalty>
0

> <r_ionizer_Ionization_penalty_charging>
0

> <r_ionizer_Ionization_penalty_neutral>
0

$$$$
ZINC001211860915
                    3D
 Schrodinger Suite 2019-4.
 36 39  0  0  1  0            999 V2000
    4.9626    2.1488    1.6254 C   0  0  0  0  0  0
    4.3783    1.0998    0.7248 C   0  0  0  0  0  0
    5.0857    0.6371   -0.3883 C   0  0  0  0  0  0
    4.5148   -0.3189   -1.2237 C   0  0  0  0  0  0
    5.2050   -0.7437   -2.2921 F   0  0  0  0  0  0
    3.2451   -0.8282   -0.9684 C   0  0  0  0  0  0
    2.7437   -1.7580   -1.7959 F   0  0  0  0  0  0
    2.5189   -0.3847    0.1379 C   0  0  0  0  0  0
    1.1732   -0.8722    0.3850 C   0  0  0  0  0  0
    0.6291   -0.9868    1.6082 N   0  0  0  0  0  0
   -0.6857   -1.3763    1.3530 O   0  0  0  0  0  0
   -0.8115   -1.4554   -0.0029 C   0  0  0  0  0  0
   -2.1677   -1.6962   -0.5795 C   0  0  1  0  0  0
   -3.0947   -2.5349    0.3214 C   0  0  0  0  0  0
   -4.1026   -1.5425    0.8539 C   0  0  0  0  0  0
   -4.9340   -1.7510    1.7181 O   0  0  0  0  0  0
   -3.9775   -0.2835    0.1336 C   0  0  0  0  0  0
   -4.7439    0.8612    0.2523 C   0  0  0  0  0  0
   -4.4128    1.9322   -0.5741 C   0  0  0  0  0  0
   -5.3013    3.4043   -0.4575 Cl  0  0  0  0  0  0
   -3.3566    1.8385   -1.4963 C   0  0  0  0  0  0
   -2.5934    0.6689   -1.5878 C   0  0  0  0  0  0
   -2.9089   -0.3933   -0.7490 C   0  0  0  0  0  0
    0.3029   -1.1708   -0.6383 N   0  0  0  0  0  0
    3.0981    0.5796    0.9853 C   0  0  0  0  0  0
    5.1231    1.7408    2.6270 H   0  0  0  0  0  0
    5.9247    2.5121    1.2513 H   0  0  0  0  0  0
    4.2840    3.0046    1.6923 H   0  0  0  0  0  0
    6.0772    1.0146   -0.6230 H   0  0  0  0  0  0
   -2.0583   -2.1977   -1.5473 H   0  0  0  0  0  0
   -3.6430   -3.2730   -0.2771 H   0  0  0  0  0  0
   -2.5766   -3.0430    1.1397 H   0  0  0  0  0  0
   -5.5574    0.9170    0.9677 H   0  0  0  0  0  0
   -3.1140    2.6882   -2.1328 H   0  0  0  0  0  0
   -1.7628    0.6110   -2.2862 H   0  0  0  0  0  0
    2.5364    0.9513    1.8433 H   0  0  0  0  0  0
  1  2  1  0  0  0
  1 26  1  0  0  0
  1 27  1  0  0  0
  1 28  1  0  0  0
  2  3  2  0  0  0
  2 25  1  0  0  0
  3  4  1  0  0  0
  3 29  1  0  0  0
  4  5  1  0  0  0
  4  6  2  0  0  0
  6  7  1  0  0  0
  6  8  1  0  0  0
  8  9  1  0  0  0
  8 25  2  0  0  0
  9 10  2  0  0  0
  9 24  1  0  0  0
 10 11  1  0  0  0
 11 12  1  0  0  0
 12 13  1  0  0  0
 12 24  2  0  0  0
 13 14  1  0  0  0
 13 23  1  0  0  0
 13 30  1  0  0  0
 14 15  1  0  0  0
 14 31  1  0  0  0
 14 32  1  0  0  0
 15 16  2  0  0  0
 15 17  1  0  0  0
 17 18  2  0  0  0
 17 23  1  0  0  0
 18 19  1  0  0  0
 18 33  1  0  0  0
 19 20  1  0  0  0
 19 21  2  0  0  0
 21 22  1  0  0  0
 21 34  1  0  0  0
 22 23  2  0  0  0
 22 35  1  0  0  0
 25 36  1  0  0  0
M  END
> <energy>
60.0573

> <i_ionizer_Ion_state_n>
0

> <i_ionizer_Tot_Q>
0

> <s_ionizer_Ion_centers>


> <s_ionizer_Ion_types>


> <s_ionizer_Ion_ctrs_in>


> <r_ionizer_Ionization_penalty>
0

> <r_ionizer_Ionization_penalty_charging>
0

> <r_ionizer_Ionization_penalty_neutral>
0

$$$$
ZINC001211860929
                    3D
 Schrodinger Suite 2019-4.
 36 39  0  0  1  0            999 V2000
    4.2754    1.6745   -0.3386 C   0  0  0  0  0  0
    3.8732    0.2312   -0.2981 C   0  0  0  0  0  0
    2.5216   -0.1432   -0.2329 C   0  0  0  0  0  0
    2.1392   -1.5000   -0.1974 C   0  0  0  0  0  0
    0.7252   -1.8433   -0.0928 C   0  0  0  0  0  0
    0.2307   -3.0804    0.0778 N   0  0  0  0  0  0
   -1.1477   -2.8890    0.1470 O   0  0  0  0  0  0
   -1.3592   -1.5506    0.0153 C   0  0  0  0  0  0
   -2.7709   -1.0768    0.0527 C   0  0  2  0  0  0
   -3.3184   -0.8962   -1.3798 C   0  0  0  0  0  0
   -3.3891    0.5978   -1.5761 C   0  0  0  0  0  0
   -3.6348    1.1781   -2.6183 O   0  0  0  0  0  0
   -3.1785    1.2688   -0.3020 C   0  0  0  0  0  0
   -3.2419    2.6211   -0.0217 C   0  0  0  0  0  0
   -2.9957    3.0046    1.2933 C   0  0  0  0  0  0
   -3.0251    4.6727    1.7115 Cl  0  0  0  0  0  0
   -2.7119    2.0490    2.2843 C   0  0  0  0  0  0
   -2.6599    0.6849    1.9714 C   0  0  0  0  0  0
   -2.8876    0.3023    0.6571 C   0  0  0  0  0  0
   -0.2498   -0.8666   -0.1446 N   0  0  0  0  0  0
    3.1459   -2.4695   -0.2561 C   0  0  0  0  0  0
    2.8520   -3.7776   -0.2403 F   0  0  0  0  0  0
    4.4904   -2.1136   -0.3384 C   0  0  0  0  0  0
    4.8425   -0.7704   -0.3598 C   0  0  0  0  0  0
    6.1397   -0.4418   -0.4404 F   0  0  0  0  0  0
    4.5455    1.9632   -1.3598 H   0  0  0  0  0  0
    3.4610    2.3239    0.0009 H   0  0  0  0  0  0
    5.1299    1.8525    0.3239 H   0  0  0  0  0  0
    1.7569    0.6340   -0.1992 H   0  0  0  0  0  0
   -3.3982   -1.7836    0.6076 H   0  0  0  0  0  0
   -2.6839   -1.3486   -2.1483 H   0  0  0  0  0  0
   -4.3345   -1.2984   -1.4588 H   0  0  0  0  0  0
   -3.4657    3.3444   -0.7984 H   0  0  0  0  0  0
   -2.5156    2.3711    3.3041 H   0  0  0  0  0  0
   -2.4169   -0.0441    2.7394 H   0  0  0  0  0  0
    5.2560   -2.8803   -0.3848 H   0  0  0  0  0  0
  1  2  1  0  0  0
  1 26  1  0  0  0
  1 27  1  0  0  0
  1 28  1  0  0  0
  2  3  2  0  0  0
  2 24  1  0  0  0
  3  4  1  0  0  0
  3 29  1  0  0  0
  4  5  1  0  0  0
  4 21  2  0  0  0
  5  6  2  0  0  0
  5 20  1  0  0  0
  6  7  1  0  0  0
  7  8  1  0  0  0
  8  9  1  0  0  0
  8 20  2  0  0  0
  9 10  1  0  0  0
  9 19  1  0  0  0
  9 30  1  0  0  0
 10 11  1  0  0  0
 10 31  1  0  0  0
 10 32  1  0  0  0
 11 12  2  0  0  0
 11 13  1  0  0  0
 13 14  2  0  0  0
 13 19  1  0  0  0
 14 15  1  0  0  0
 14 33  1  0  0  0
 15 16  1  0  0  0
 15 17  2  0  0  0
 17 18  1  0  0  0
 17 34  1  0  0  0
 18 19  2  0  0  0
 18 35  1  0  0  0
 21 22  1  0  0  0
 21 23  1  0  0  0
 23 24  2  0  0  0
 23 36  1  0  0  0
 24 25  1  0  0  0
M  END
> <energy>
47.6618

> <i_ionizer_Ion_state_n>
0

> <i_ionizer_Tot_Q>
0

> <s_ionizer_Ion_centers>


> <s_ionizer_Ion_types>


> <s_ionizer_Ion_ctrs_in>


> <r_ionizer_Ionization_penalty>
0

> <r_ionizer_Ionization_penalty_charging>
0

> <r_ionizer_Ionization_penalty_neutral>
0

$$$$
ZINC001211860930
                    3D
 Schrodinger Suite 2019-4.
 36 39  0  0  1  0            999 V2000
    4.5765   -1.2391   -0.2951 C   0  0  0  0  0  0
    4.0115    0.1270   -0.0465 C   0  0  0  0  0  0
    2.6248    0.3435   -0.0828 C   0  0  0  0  0  0
    2.0769    1.6110    0.1924 C   0  0  0  0  0  0
    0.6322    1.7927    0.1451 C   0  0  0  0  0  0
   -0.0277    2.8880    0.5545 N   0  0  0  0  0  0
   -1.3651    2.5932    0.3035 O   0  0  0  0  0  0
   -1.3893    1.3409   -0.2282 C   0  0  0  0  0  0
   -2.7157    0.7869   -0.6111 C   0  0  1  0  0  0
   -2.6827    0.2740   -2.0692 C   0  0  0  0  0  0
   -2.6073   -1.2278   -1.9369 C   0  0  0  0  0  0
   -2.3885   -2.0236   -2.8313 O   0  0  0  0  0  0
   -2.9163   -1.6070   -0.5655 C   0  0  0  0  0  0
   -3.0858   -2.8748   -0.0411 C   0  0  0  0  0  0
   -3.4319   -2.9605    1.3043 C   0  0  0  0  0  0
   -3.6573   -4.5054    2.0285 Cl  0  0  0  0  0  0
   -3.6025   -1.8026    2.0836 C   0  0  0  0  0  0
   -3.4076   -0.5322    1.5284 C   0  0  0  0  0  0
   -3.0577   -0.4451    0.1879 C   0  0  0  0  0  0
   -0.1981    0.8018   -0.3395 N   0  0  0  0  0  0
    2.9527    2.6580    0.5003 C   0  0  0  0  0  0
    2.4974    3.8952    0.7470 F   0  0  0  0  0  0
    4.3295    2.4557    0.5527 C   0  0  0  0  0  0
    4.8461    1.1945    0.2885 C   0  0  0  0  0  0
    6.1720    1.0104    0.3584 F   0  0  0  0  0  0
    5.5516   -1.1778   -0.7869 H   0  0  0  0  0  0
    3.9199   -1.8174   -0.9534 H   0  0  0  0  0  0
    4.6866   -1.7758    0.6523 H   0  0  0  0  0  0
    1.9642   -0.4892   -0.3252 H   0  0  0  0  0  0
   -3.4980    1.5460   -0.5030 H   0  0  0  0  0  0
   -3.6177    0.5198   -2.5848 H   0  0  0  0  0  0
   -1.8347    0.6561   -2.6470 H   0  0  0  0  0  0
   -2.9573   -3.7575   -0.6582 H   0  0  0  0  0  0
   -3.8750   -1.8907    3.1336 H   0  0  0  0  0  0
   -3.5191    0.3560    2.1450 H   0  0  0  0  0  0
    4.9932    3.2759    0.7997 H   0  0  0  0  0  0
  1  2  1  0  0  0
  1 26  1  0  0  0
  1 27  1  0  0  0
  1 28  1  0  0  0
  2  3  2  0  0  0
  2 24  1  0  0  0
  3  4  1  0  0  0
  3 29  1  0  0  0
  4  5  1  0  0  0
  4 21  2  0  0  0
  5  6  2  0  0  0
  5 20  1  0  0  0
  6  7  1  0  0  0
  7  8  1  0  0  0
  8  9  1  0  0  0
  8 20  2  0  0  0
  9 10  1  0  0  0
  9 19  1  0  0  0
  9 30  1  0  0  0
 10 11  1  0  0  0
 10 31  1  0  0  0
 10 32  1  0  0  0
 11 12  2  0  0  0
 11 13  1  0  0  0
 13 14  2  0  0  0
 13 19  1  0  0  0
 14 15  1  0  0  0
 14 33  1  0  0  0
 15 16  1  0  0  0
 15 17  2  0  0  0
 17 18  1  0  0  0
 17 34  1  0  0  0
 18 19  2  0  0  0
 18 35  1  0  0  0
 21 22  1  0  0  0
 21 23  1  0  0  0
 23 24  2  0  0  0
 23 36  1  0  0  0
 24 25  1  0  0  0
M  END
> <energy>
47.2693

> <i_ionizer_Ion_state_n>
0

> <i_ionizer_Tot_Q>
0

> <s_ionizer_Ion_centers>


> <s_ionizer_Ion_types>


> <s_ionizer_Ion_ctrs_in>


> <r_ionizer_Ionization_penalty>
0

> <r_ionizer_Ionization_penalty_charging>
0

> <r_ionizer_Ionization_penalty_neutral>
0

$$$$
ZINC001211860962
                    3D
 Schrodinger Suite 2019-4.
 33 36  0  0  1  0            999 V2000
    1.6070   -1.7925   -3.3192 O   0  0  0  0  0  0
    1.2751   -2.0717   -2.1846 C   0  0  0  0  0  0
    2.2013   -2.4573   -1.0550 C   0  0  0  0  0  0
    1.3205   -2.3335    0.2037 C   0  0  1  0  0  0
    1.4819   -0.9852    0.8318 C   0  0  0  0  0  0
    0.5444   -0.1220    1.1343 N   0  0  0  0  0  0
    1.2435    1.0519    1.2736 C   0  0  0  0  0  0
    0.5170    2.3091    1.3119 C   0  0  0  0  0  0
   -0.7033    2.3530    2.0088 C   0  0  0  0  0  0
   -1.5107    3.4870    1.9478 C   0  0  0  0  0  0
   -1.0927    4.5808    1.1967 C   0  0  0  0  0  0
   -1.8987    5.6539    1.1353 F   0  0  0  0  0  0
    0.1265    4.5653    0.5185 C   0  0  0  0  0  0
    0.6527    5.9486   -0.3556 Cl  0  0  0  0  0  0
    0.9454    3.4353    0.5873 C   0  0  0  0  0  0
    2.5729    0.9073    1.2168 N   0  0  0  0  0  0
    2.7378   -0.4655    0.9615 O   0  0  0  0  0  0
   -0.0781   -2.4718   -0.3710 C   0  0  0  0  0  0
   -1.2706   -2.6940    0.3038 C   0  0  0  0  0  0
   -2.4657   -2.6185   -0.4220 C   0  0  0  0  0  0
   -2.4661   -2.2997   -1.7919 C   0  0  0  0  0  0
   -3.9595   -2.2518   -2.6517 Cl  0  0  0  0  0  0
   -1.2740   -2.0588   -2.4609 C   0  0  0  0  0  0
   -0.1055   -2.1799   -1.7303 C   0  0  0  0  0  0
    2.5193   -3.4964   -1.2217 H   0  0  0  0  0  0
    3.0798   -1.8101   -1.0490 H   0  0  0  0  0  0
    1.5400   -3.1315    0.9170 H   0  0  0  0  0  0
   -1.0203    1.4899    2.5903 H   0  0  0  0  0  0
   -2.4546    3.5171    2.4810 H   0  0  0  0  0  0
    1.8887    3.4175    0.0473 H   0  0  0  0  0  0
   -1.2830   -2.8861    1.3704 H   0  0  0  0  0  0
   -3.4127   -2.7930    0.0908 H   0  0  0  0  0  0
   -1.2583   -1.7973   -3.5156 H   0  0  0  0  0  0
  1  2  2  0  0  0
  2  3  1  0  0  0
  2 24  1  0  0  0
  3  4  1  0  0  0
  3 25  1  0  0  0
  3 26  1  0  0  0
  4  5  1  0  0  0
  4 18  1  0  0  0
  4 27  1  0  0  0
  5  6  2  0  0  0
  5 17  1  0  0  0
  6  7  1  0  0  0
  7  8  1  0  0  0
  7 16  2  0  0  0
  8  9  2  0  0  0
  8 15  1  0  0  0
  9 10  1  0  0  0
  9 28  1  0  0  0
 10 11  2  0  0  0
 10 29  1  0  0  0
 11 12  1  0  0  0
 11 13  1  0  0  0
 13 14  1  0  0  0
 13 15  2  0  0  0
 15 30  1  0  0  0
 16 17  1  0  0  0
 18 19  2  0  0  0
 18 24  1  0  0  0
 19 20  1  0  0  0
 19 31  1  0  0  0
 20 21  2  0  0  0
 20 32  1  0  0  0
 21 22  1  0  0  0
 21 23  1  0  0  0
 23 24  2  0  0  0
 23 33  1  0  0  0
M  END
> <energy>
65.9024

> <i_ionizer_Ion_state_n>
0

> <i_ionizer_Tot_Q>
0

> <s_ionizer_Ion_centers>


> <s_ionizer_Ion_types>


> <s_ionizer_Ion_ctrs_in>


> <r_ionizer_Ionization_penalty>
0

> <r_ionizer_Ionization_penalty_charging>
0

> <r_ionizer_Ionization_penalty_neutral>
0

$$$$
ZINC001211860963
                    3D
 Schrodinger Suite 2019-4.
 33 36  0  0  1  0            999 V2000
    3.0560   -2.7120    2.5182 O   0  0  0  0  0  0
    2.4210   -2.3438    1.5447 C   0  0  0  0  0  0
    2.3819   -0.9540    0.9744 C   0  0  0  0  0  0
    1.6809   -1.1189   -0.3916 C   0  0  2  0  0  0
    0.7731    0.0175   -0.6909 C   0  0  0  0  0  0
    0.1032    0.8189    0.1105 N   0  0  0  0  0  0
   -0.4015    1.7619   -0.7634 C   0  0  0  0  0  0
   -1.1784    2.9196   -0.3242 C   0  0  0  0  0  0
   -1.7632    2.9473    0.9523 C   0  0  0  0  0  0
   -2.5335    4.0437    1.3555 C   0  0  0  0  0  0
   -2.7048    5.1215    0.4910 C   0  0  0  0  0  0
   -3.4496    6.1590    0.8976 F   0  0  0  0  0  0
   -2.1156    5.1208   -0.7709 C   0  0  0  0  0  0
   -2.3122    6.4607   -1.8382 Cl  0  0  0  0  0  0
   -1.3570    4.0224   -1.1796 C   0  0  0  0  0  0
   -0.0922    1.5263   -2.0490 N   0  0  0  0  0  0
    0.6847    0.3748   -2.0036 O   0  0  0  0  0  0
    1.0513   -2.4872   -0.3108 C   0  0  0  0  0  0
    0.2003   -3.1137   -1.2091 C   0  0  0  0  0  0
   -0.1607   -4.4495   -0.9677 C   0  0  0  0  0  0
    0.3400   -5.1445    0.1474 C   0  0  0  0  0  0
   -0.1229   -6.7803    0.4031 Cl  0  0  0  0  0  0
    1.2059   -4.5256    1.0408 C   0  0  0  0  0  0
    1.5352   -3.2065    0.7817 C   0  0  0  0  0  0
    1.8255   -0.3226    1.6745 H   0  0  0  0  0  0
    3.3926   -0.5608    0.8446 H   0  0  0  0  0  0
    2.4497   -1.1641   -1.1757 H   0  0  0  0  0  0
   -1.6339    2.1098    1.6357 H   0  0  0  0  0  0
   -3.0026    4.0627    2.3359 H   0  0  0  0  0  0
   -0.9021    4.0298   -2.1683 H   0  0  0  0  0  0
   -0.1697   -2.6053   -2.0943 H   0  0  0  0  0  0
   -0.8214   -4.9597   -1.6678 H   0  0  0  0  0  0
    1.6199   -5.0480    1.8972 H   0  0  0  0  0  0
  1  2  2  0  0  0
  2  3  1  0  0  0
  2 24  1  0  0  0
  3  4  1  0  0  0
  3 25  1  0  0  0
  3 26  1  0  0  0
  4  5  1  0  0  0
  4 18  1  0  0  0
  4 27  1  0  0  0
  5  6  2  0  0  0
  5 17  1  0  0  0
  6  7  1  0  0  0
  7  8  1  0  0  0
  7 16  2  0  0  0
  8  9  2  0  0  0
  8 15  1  0  0  0
  9 10  1  0  0  0
  9 28  1  0  0  0
 10 11  2  0  0  0
 10 29  1  0  0  0
 11 12  1  0  0  0
 11 13  1  0  0  0
 13 14  1  0  0  0
 13 15  2  0  0  0
 15 30  1  0  0  0
 16 17  1  0  0  0
 18 19  2  0  0  0
 18 24  1  0  0  0
 19 20  1  0  0  0
 19 31  1  0  0  0
 20 21  2  0  0  0
 20 32  1  0  0  0
 21 22  1  0  0  0
 21 23  1  0  0  0
 23 24  2  0  0  0
 23 33  1  0  0  0
M  END
> <energy>
57.2546

> <i_ionizer_Ion_state_n>
0

> <i_ionizer_Tot_Q>
0

> <s_ionizer_Ion_centers>


> <s_ionizer_Ion_types>


> <s_ionizer_Ion_ctrs_in>


> <r_ionizer_Ionization_penalty>
0

> <r_ionizer_Ionization_penalty_charging>
0

> <r_ionizer_Ionization_penalty_neutral>
0

$$$$
ZINC001211860980
                    3D
 Schrodinger Suite 2019-4.
 40 44  0  0  1  0            999 V2000
    3.0428    2.6923   -1.3184 C   0  0  0  0  0  0
    3.8577    1.5290   -1.0498 N   0  0  0  0  0  0
    5.2181    1.4739   -1.1904 C   0  0  0  0  0  0
    5.6271    0.2079   -0.8370 C   0  0  0  0  0  0
    4.4708   -0.5403   -0.4851 C   0  0  0  0  0  0
    4.2540   -1.8674   -0.0656 C   0  0  0  0  0  0
    2.9482   -2.2954    0.2230 C   0  0  0  0  0  0
    1.8558   -1.4273    0.1006 C   0  0  0  0  0  0
    0.5018   -1.8626    0.4253 C   0  0  0  0  0  0
    0.1232   -3.1439    0.5670 N   0  0  0  0  0  0
   -1.2284   -3.0606    0.8921 O   0  0  0  0  0  0
   -1.5380   -1.7347    0.9217 C   0  0  0  0  0  0
   -2.9285   -1.3717    1.3094 C   0  0  1  0  0  0
   -2.9222   -0.5649    2.6276 C   0  0  0  0  0  0
   -3.2008    0.8574    2.2043 C   0  0  0  0  0  0
   -3.1381    1.8493    2.9056 O   0  0  0  0  0  0
   -3.6484    0.8696    0.8182 C   0  0  0  0  0  0
   -4.1289    1.9344    0.0777 C   0  0  0  0  0  0
   -4.5715    1.6560   -1.2121 C   0  0  0  0  0  0
   -5.2002    2.9266   -2.1879 Cl  0  0  0  0  0  0
   -4.5277    0.3480   -1.7271 C   0  0  0  0  0  0
   -4.0127   -0.7047   -0.9612 C   0  0  0  0  0  0
   -3.5678   -0.4300    0.3227 C   0  0  0  0  0  0
   -0.5204   -0.9576    0.6334 N   0  0  0  0  0  0
    2.0641   -0.1045   -0.3233 C   0  0  0  0  0  0
    3.3737    0.3137   -0.6129 C   0  0  0  0  0  0
    2.4050    2.8851   -0.4512 H   0  0  0  0  0  0
    2.4378    2.4846   -2.2037 H   0  0  0  0  0  0
    3.6877    3.5550   -1.4989 H   0  0  0  0  0  0
    5.7875    2.3333   -1.5195 H   0  0  0  0  0  0
    6.6502   -0.1456   -0.8349 H   0  0  0  0  0  0
    5.0904   -2.5534    0.0407 H   0  0  0  0  0  0
    2.8007   -3.3193    0.5623 H   0  0  0  0  0  0
   -3.5470   -2.2695    1.4263 H   0  0  0  0  0  0
   -1.9746   -0.6282    3.1731 H   0  0  0  0  0  0
   -3.7412   -0.8878    3.2812 H   0  0  0  0  0  0
   -4.1687    2.9339    0.4960 H   0  0  0  0  0  0
   -4.8922    0.1473   -2.7324 H   0  0  0  0  0  0
   -3.9667   -1.7090   -1.3735 H   0  0  0  0  0  0
    1.2273    0.5809   -0.4232 H   0  0  0  0  0  0
  1  2  1  0  0  0
  1 27  1  0  0  0
  1 28  1  0  0  0
  1 29  1  0  0  0
  2  3  1  0  0  0
  2 26  1  0  0  0
  3  4  2  0  0  0
  3 30  1  0  0  0
  4  5  1  0  0  0
  4 31  1  0  0  0
  5  6  1  0  0  0
  5 26  2  0  0  0
  6  7  2  0  0  0
  6 32  1  0  0  0
  7  8  1  0  0  0
  7 33  1  0  0  0
  8  9  1  0  0  0
  8 25  2  0  0  0
  9 10  2  0  0  0
  9 24  1  0  0  0
 10 11  1  0  0  0
 11 12  1  0  0  0
 12 13  1  0  0  0
 12 24  2  0  0  0
 13 14  1  0  0  0
 13 23  1  0  0  0
 13 34  1  0  0  0
 14 15  1  0  0  0
 14 35  1  0  0  0
 14 36  1  0  0  0
 15 16  2  0  0  0
 15 17  1  0  0  0
 17 18  2  0  0  0
 17 23  1  0  0  0
 18 19  1  0  0  0
 18 37  1  0  0  0
 19 20  1  0  0  0
 19 21  2  0  0  0
 21 22  1  0  0  0
 21 38  1  0  0  0
 22 23  2  0  0  0
 22 39  1  0  0  0
 25 26  1  0  0  0
 25 40  1  0  0  0
M  END
> <energy>
59.8771

> <i_ionizer_Ion_state_n>
0

> <i_ionizer_Tot_Q>
0

> <s_ionizer_Ion_centers>


> <s_ionizer_Ion_types>


> <s_ionizer_Ion_ctrs_in>


> <r_ionizer_Ionization_penalty>
0

> <r_ionizer_Ionization_penalty_charging>
0

> <r_ionizer_Ionization_penalty_neutral>
0

$$$$
ZINC001211860981
                    3D
 Schrodinger Suite 2019-4.
 40 44  0  0  1  0            999 V2000
    4.3895   -2.3002   -1.1677 C   0  0  0  0  0  0
    4.7539   -1.1870   -0.3200 N   0  0  0  0  0  0
    5.9987   -0.9875    0.2129 C   0  0  0  0  0  0
    5.9645    0.1766    0.9473 C   0  0  0  0  0  0
    4.6467    0.7026    0.8601 C   0  0  0  0  0  0
    4.0158    1.8442    1.3886 C   0  0  0  0  0  0
    2.6569    2.0679    1.1227 C   0  0  0  0  0  0
    1.9132    1.1806    0.3346 C   0  0  0  0  0  0
    0.4889    1.4031    0.0967 C   0  0  0  0  0  0
   -0.2166    2.4176    0.6246 N   0  0  0  0  0  0
   -1.5169    2.1873    0.1877 O   0  0  0  0  0  0
   -1.4748    1.0690   -0.5902 C   0  0  0  0  0  0
   -2.7462    0.5684   -1.1804 C   0  0  2  0  0  0
   -3.7579    1.6739   -1.5494 C   0  0  0  0  0  0
   -5.0752    1.1866   -1.0010 C   0  0  0  0  0  0
   -6.1631    1.7066   -1.1732 O   0  0  0  0  0  0
   -4.8667   -0.0088   -0.1988 C   0  0  0  0  0  0
   -5.7968   -0.7215    0.5378 C   0  0  0  0  0  0
   -5.3269   -1.8331    1.2333 C   0  0  0  0  0  0
   -6.4159   -2.7695    2.1795 Cl  0  0  0  0  0  0
   -3.9727   -2.2067    1.1770 C   0  0  0  0  0  0
   -3.0592   -1.4674    0.4170 C   0  0  0  0  0  0
   -3.5195   -0.3516   -0.2689 C   0  0  0  0  0  0
   -0.2717    0.5488   -0.6785 N   0  0  0  0  0  0
    2.5412    0.0489   -0.2146 C   0  0  0  0  0  0
    3.9019   -0.1723    0.0648 C   0  0  0  0  0  0
    3.5454   -2.8238   -0.7117 H   0  0  0  0  0  0
    5.2387   -2.9821   -1.2634 H   0  0  0  0  0  0
    4.1166   -1.9082   -2.1507 H   0  0  0  0  0  0
    6.8148   -1.6773    0.0299 H   0  0  0  0  0  0
    6.8038    0.6010    1.4871 H   0  0  0  0  0  0
    4.5724    2.5429    2.0070 H   0  0  0  0  0  0
    2.1845    2.9498    1.5519 H   0  0  0  0  0  0
   -2.5030    0.0074   -2.0924 H   0  0  0  0  0  0
   -3.8300    1.7835   -2.6361 H   0  0  0  0  0  0
   -3.5335    2.6470   -1.1028 H   0  0  0  0  0  0
   -6.8397   -0.4181    0.5720 H   0  0  0  0  0  0
   -3.6275   -3.0808    1.7263 H   0  0  0  0  0  0
   -2.0151   -1.7690    0.3722 H   0  0  0  0  0  0
    1.9814   -0.6489   -0.8309 H   0  0  0  0  0  0
  1  2  1  0  0  0
  1 27  1  0  0  0
  1 28  1  0  0  0
  1 29  1  0  0  0
  2  3  1  0  0  0
  2 26  1  0  0  0
  3  4  2  0  0  0
  3 30  1  0  0  0
  4  5  1  0  0  0
  4 31  1  0  0  0
  5  6  1  0  0  0
  5 26  2  0  0  0
  6  7  2  0  0  0
  6 32  1  0  0  0
  7  8  1  0  0  0
  7 33  1  0  0  0
  8  9  1  0  0  0
  8 25  2  0  0  0
  9 10  2  0  0  0
  9 24  1  0  0  0
 10 11  1  0  0  0
 11 12  1  0  0  0
 12 13  1  0  0  0
 12 24  2  0  0  0
 13 14  1  0  0  0
 13 23  1  0  0  0
 13 34  1  0  0  0
 14 15  1  0  0  0
 14 35  1  0  0  0
 14 36  1  0  0  0
 15 16  2  0  0  0
 15 17  1  0  0  0
 17 18  2  0  0  0
 17 23  1  0  0  0
 18 19  1  0  0  0
 18 37  1  0  0  0
 19 20  1  0  0  0
 19 21  2  0  0  0
 21 22  1  0  0  0
 21 38  1  0  0  0
 22 23  2  0  0  0
 22 39  1  0  0  0
 25 26  1  0  0  0
 25 40  1  0  0  0
M  END
> <energy>
64.1965

> <i_ionizer_Ion_state_n>
0

> <i_ionizer_Tot_Q>
0

> <s_ionizer_Ion_centers>


> <s_ionizer_Ion_types>


> <s_ionizer_Ion_ctrs_in>


> <r_ionizer_Ionization_penalty>
0

> <r_ionizer_Ionization_penalty_charging>
0

> <r_ionizer_Ionization_penalty_neutral>
0

$$$$
ZINC001211860982
                    3D
 Schrodinger Suite 2019-4.
 36 39  0  0  1  0            999 V2000
   -3.8196   -2.5291    0.4609 C   0  0  0  0  0  0
   -4.0177   -1.0682    0.2055 C   0  0  0  0  0  0
   -5.3288   -0.6491   -0.1029 C   0  0  0  0  0  0
   -5.6281    0.6793   -0.3691 C   0  0  0  0  0  0
   -6.8818    1.0212   -0.6820 F   0  0  0  0  0  0
   -4.6269    1.6284   -0.3131 C   0  0  0  0  0  0
   -4.8885    2.9090   -0.6004 F   0  0  0  0  0  0
   -3.3321    1.2427    0.0028 C   0  0  0  0  0  0
   -2.9840   -0.1183    0.2018 C   0  0  0  0  0  0
   -1.5426   -0.4284    0.2731 C   0  0  0  0  0  0
   -0.9530   -1.6340    0.3489 N   0  0  0  0  0  0
    0.4171   -1.3633    0.1973 O   0  0  0  0  0  0
    0.5082   -0.0169    0.0009 C   0  0  0  0  0  0
    1.7766    0.5740   -0.4758 C   0  0  2  0  0  0
    2.1358    0.1315   -1.9001 C   0  0  0  0  0  0
    3.6393    0.2606   -1.9343 C   0  0  0  0  0  0
    4.3455    0.2481   -2.9173 O   0  0  0  0  0  0
    4.1359    0.3631   -0.5634 C   0  0  0  0  0  0
    5.4420    0.4768   -0.1363 C   0  0  0  0  0  0
    5.6362    0.5812    1.2441 C   0  0  0  0  0  0
    7.2272    0.8425    1.8463 Cl  0  0  0  0  0  0
    4.5543    0.5113    2.1434 C   0  0  0  0  0  0
    3.2424    0.4121    1.6717 C   0  0  0  0  0  0
    3.0424    0.3702    0.3032 C   0  0  0  0  0  0
   -0.6391    0.5981    0.1231 N   0  0  0  0  0  0
   -3.1998   -2.6999    1.3462 H   0  0  0  0  0  0
   -3.3807   -2.9885   -0.4293 H   0  0  0  0  0  0
   -4.7780   -3.0215    0.6514 H   0  0  0  0  0  0
   -6.1232   -1.3898   -0.1656 H   0  0  0  0  0  0
   -2.5685    2.0092    0.0383 H   0  0  0  0  0  0
    1.6324    1.6687   -0.4780 H   0  0  0  0  0  0
    1.6814    0.8101   -2.6202 H   0  0  0  0  0  0
    1.8667   -0.9088   -2.1128 H   0  0  0  0  0  0
    6.2617    0.5216   -0.8497 H   0  0  0  0  0  0
    4.7361    0.5618    3.2131 H   0  0  0  0  0  0
    2.4113    0.3941    2.3785 H   0  0  0  0  0  0
  1  2  1  0  0  0
  1 26  1  0  0  0
  1 27  1  0  0  0
  1 28  1  0  0  0
  2  3  2  0  0  0
  2  9  1  0  0  0
  3  4  1  0  0  0
  3 29  1  0  0  0
  4  5  1  0  0  0
  4  6  2  0  0  0
  6  7  1  0  0  0
  6  8  1  0  0  0
  8  9  2  0  0  0
  8 30  1  0  0  0
  9 10  1  0  0  0
 10 11  2  0  0  0
 10 25  1  0  0  0
 11 12  1  0  0  0
 12 13  1  0  0  0
 13 14  1  0  0  0
 13 25  2  0  0  0
 14 15  1  0  0  0
 14 24  1  0  0  0
 14 31  1  0  0  0
 15 16  1  0  0  0
 15 32  1  0  0  0
 15 33  1  0  0  0
 16 17  2  0  0  0
 16 18  1  0  0  0
 18 19  2  0  0  0
 18 24  1  0  0  0
 19 20  1  0  0  0
 19 34  1  0  0  0
 20 21  1  0  0  0
 20 22  2  0  0  0
 22 23  1  0  0  0
 22 35  1  0  0  0
 23 24  2  0  0  0
 23 36  1  0  0  0
M  END
> <energy>
71.2148

> <i_ionizer_Ion_state_n>
0

> <i_ionizer_Tot_Q>
0

> <s_ionizer_Ion_centers>


> <s_ionizer_Ion_types>


> <s_ionizer_Ion_ctrs_in>


> <r_ionizer_Ionization_penalty>
0

> <r_ionizer_Ionization_penalty_charging>
0

> <r_ionizer_Ionization_penalty_neutral>
0

$$$$
ZINC001211860983
                    3D
 Schrodinger Suite 2019-4.
 36 39  0  0  1  0            999 V2000
   -2.8281    1.1773    0.6815 C   0  0  0  0  0  0
   -3.3164    0.4206   -0.5282 C   0  0  0  0  0  0
   -4.5696    0.7893   -1.0606 C   0  0  0  0  0  0
   -5.0865    0.1344   -2.1708 C   0  0  0  0  0  0
   -6.2803    0.5041   -2.6550 F   0  0  0  0  0  0
   -4.3719   -0.8883   -2.7707 C   0  0  0  0  0  0
   -4.8718   -1.5213   -3.8408 F   0  0  0  0  0  0
   -3.1278   -1.2664   -2.2724 C   0  0  0  0  0  0
   -2.5754   -0.6231   -1.1451 C   0  0  0  0  0  0
   -1.2495   -1.0494   -0.6768 C   0  0  0  0  0  0
   -0.4363   -1.8615   -1.3756 N   0  0  0  0  0  0
    0.7228   -1.9255   -0.6114 O   0  0  0  0  0  0
    0.4964   -1.1721    0.4996 C   0  0  0  0  0  0
    1.6082   -0.9693    1.4711 C   0  0  1  0  0  0
    2.6493   -2.1069    1.5018 C   0  0  0  0  0  0
    3.9432   -1.4616    1.0734 C   0  0  0  0  0  0
    5.0114   -2.0257    0.9193 O   0  0  0  0  0  0
    3.7502   -0.0331    0.8946 C   0  0  0  0  0  0
    4.6840    0.9231    0.5389 C   0  0  0  0  0  0
    4.2359    2.2382    0.4425 C   0  0  0  0  0  0
    5.3336    3.4806   -0.0192 Cl  0  0  0  0  0  0
    2.8957    2.5667    0.7095 C   0  0  0  0  0  0
    1.9760    1.5760    1.0710 C   0  0  0  0  0  0
    2.4173    0.2623    1.1508 C   0  0  0  0  0  0
   -0.7011   -0.6301    0.5140 N   0  0  0  0  0  0
   -2.7014    0.5008    1.5331 H   0  0  0  0  0  0
   -1.8865    1.6911    0.4617 H   0  0  0  0  0  0
   -3.5477    1.9448    0.9921 H   0  0  0  0  0  0
   -5.1549    1.5930   -0.6199 H   0  0  0  0  0  0
   -2.5994   -2.0704   -2.7793 H   0  0  0  0  0  0
    1.1759   -0.8574    2.4736 H   0  0  0  0  0  0
    2.7738   -2.4771    2.5251 H   0  0  0  0  0  0
    2.4147   -2.9463    0.8407 H   0  0  0  0  0  0
    5.7163    0.6504    0.3415 H   0  0  0  0  0  0
    2.5625    3.5978    0.6273 H   0  0  0  0  0  0
    0.9372    1.8353    1.2627 H   0  0  0  0  0  0
  1  2  1  0  0  0
  1 26  1  0  0  0
  1 27  1  0  0  0
  1 28  1  0  0  0
  2  3  2  0  0  0
  2  9  1  0  0  0
  3  4  1  0  0  0
  3 29  1  0  0  0
  4  5  1  0  0  0
  4  6  2  0  0  0
  6  7  1  0  0  0
  6  8  1  0  0  0
  8  9  2  0  0  0
  8 30  1  0  0  0
  9 10  1  0  0  0
 10 11  2  0  0  0
 10 25  1  0  0  0
 11 12  1  0  0  0
 12 13  1  0  0  0
 13 14  1  0  0  0
 13 25  2  0  0  0
 14 15  1  0  0  0
 14 24  1  0  0  0
 14 31  1  0  0  0
 15 16  1  0  0  0
 15 32  1  0  0  0
 15 33  1  0  0  0
 16 17  2  0  0  0
 16 18  1  0  0  0
 18 19  2  0  0  0
 18 24  1  0  0  0
 19 20  1  0  0  0
 19 34  1  0  0  0
 20 21  1  0  0  0
 20 22  2  0  0  0
 22 23  1  0  0  0
 22 35  1  0  0  0
 23 24  2  0  0  0
 23 36  1  0  0  0
M  END
> <energy>
63.3574

> <i_ionizer_Ion_state_n>
0

> <i_ionizer_Tot_Q>
0

> <s_ionizer_Ion_centers>


> <s_ionizer_Ion_types>


> <s_ionizer_Ion_ctrs_in>


> <r_ionizer_Ionization_penalty>
0

> <r_ionizer_Ionization_penalty_charging>
0

> <r_ionizer_Ionization_penalty_neutral>
0

$$$$
ZINC001211861000
                    3D
 Schrodinger Suite 2019-4.
 38 42  0  0  1  0            999 V2000
    5.8345   -1.8533   -0.6980 O   0  0  0  0  0  0
    4.7416   -1.5952   -0.2173 C   0  0  0  0  0  0
    3.6122   -2.5742    0.0056 C   0  0  0  0  0  0
    2.6015   -1.8111    0.8780 C   0  0  2  0  0  0
    1.2013   -1.9308    0.3870 C   0  0  0  0  0  0
    0.5307   -1.1383   -0.4174 N   0  0  0  0  0  0
   -0.7711   -1.5312   -0.2077 C   0  0  0  0  0  0
   -1.8832   -0.7063   -0.6517 C   0  0  0  0  0  0
   -1.8073    0.0251   -1.8408 C   0  0  0  0  0  0
   -2.8233    0.9306   -2.1754 C   0  0  0  0  0  0
   -3.9156    1.1498   -1.3431 C   0  0  0  0  0  0
   -4.8383    2.0681   -1.6797 N   0  0  0  0  0  0
   -5.8671    2.2818   -0.8273 C   0  0  0  0  0  0
   -6.0307    1.6015    0.3635 C   0  0  0  0  0  0
   -5.0858    0.6416    0.7001 C   0  0  0  0  0  0
   -4.0014    0.4036   -0.1520 C   0  0  0  0  0  0
   -2.9996   -0.5294    0.1763 C   0  0  0  0  0  0
   -0.8924   -2.6073    0.5862 N   0  0  0  0  0  0
    0.4184   -2.8777    0.9804 O   0  0  0  0  0  0
    3.1009   -0.3861    0.8579 C   0  0  0  0  0  0
    2.4825    0.7495    1.3700 C   0  0  0  0  0  0
    3.1118    1.9882    1.2073 C   0  0  0  0  0  0
    4.3518    2.0744    0.5600 C   0  0  0  0  0  0
    5.0973    3.6114    0.3648 Cl  0  0  0  0  0  0
    4.9846    0.9343    0.0640 C   0  0  0  0  0  0
    4.3331   -0.2725    0.2279 C   0  0  0  0  0  0
    3.2027   -2.8737   -0.9693 H   0  0  0  0  0  0
    3.9851   -3.4629    0.5327 H   0  0  0  0  0  0
    2.6594   -2.1753    1.9124 H   0  0  0  0  0  0
   -0.9469   -0.0791   -2.5008 H   0  0  0  0  0  0
   -2.7454    1.5021   -3.0982 H   0  0  0  0  0  0
   -6.5798    3.0422   -1.1401 H   0  0  0  0  0  0
   -6.8757    1.8152    1.0098 H   0  0  0  0  0  0
   -5.1928    0.0982    1.6365 H   0  0  0  0  0  0
   -3.0675   -1.0829    1.1145 H   0  0  0  0  0  0
    1.5106    0.6943    1.8596 H   0  0  0  0  0  0
    2.6277    2.8845    1.5774 H   0  0  0  0  0  0
    5.9360    0.9905   -0.4532 H   0  0  0  0  0  0
  1  2  2  0  0  0
  2  3  1  0  0  0
  2 26  1  0  0  0
  3  4  1  0  0  0
  3 27  1  0  0  0
  3 28  1  0  0  0
  4  5  1  0  0  0
  4 20  1  0  0  0
  4 29  1  0  0  0
  5  6  2  0  0  0
  5 19  1  0  0  0
  6  7  1  0  0  0
  7  8  1  0  0  0
  7 18  2  0  0  0
  8  9  1  0  0  0
  8 17  2  0  0  0
  9 10  2  0  0  0
  9 30  1  0  0  0
 10 11  1  0  0  0
 10 31  1  0  0  0
 11 12  1  0  0  0
 11 16  2  0  0  0
 12 13  2  0  0  0
 13 14  1  0  0  0
 13 32  1  0  0  0
 14 15  2  0  0  0
 14 33  1  0  0  0
 15 16  1  0  0  0
 15 34  1  0  0  0
 16 17  1  0  0  0
 17 35  1  0  0  0
 18 19  1  0  0  0
 20 21  2  0  0  0
 20 26  1  0  0  0
 21 22  1  0  0  0
 21 36  1  0  0  0
 22 23  2  0  0  0
 22 37  1  0  0  0
 23 24  1  0  0  0
 23 25  1  0  0  0
 25 26  2  0  0  0
 25 38  1  0  0  0
M  END
> <energy>
79.6031

> <i_ionizer_Ion_state_n>
0

> <i_ionizer_Tot_Q>
0

> <s_ionizer_Ion_centers>


> <s_ionizer_Ion_types>


> <s_ionizer_Ion_ctrs_in>


> <r_ionizer_Ionization_penalty>
0.00741239

> <r_ionizer_Ionization_penalty_charging>
0

> <r_ionizer_Ionization_penalty_neutral>
0.00741239

$$$$
ZINC001211861001
                    3D
 Schrodinger Suite 2019-4.
 38 42  0  0  1  0            999 V2000
    4.4417   -4.1985    0.1166 O   0  0  0  0  0  0
    3.6194   -3.4125   -0.3181 C   0  0  0  0  0  0
    2.3348   -3.7660   -1.0349 C   0  0  0  0  0  0
    1.6502   -2.4157   -1.3350 C   0  0  1  0  0  0
    0.3709   -2.1624   -0.6067 C   0  0  0  0  0  0
   -0.4801   -1.1838   -0.8225 N   0  0  0  0  0  0
   -1.2374   -1.1795    0.3282 C   0  0  0  0  0  0
   -2.1287   -0.0660    0.6436 C   0  0  0  0  0  0
   -2.6474    0.1129    1.9286 C   0  0  0  0  0  0
   -3.3919    1.2605    2.2392 C   0  0  0  0  0  0
   -3.6411    2.2529    1.2992 C   0  0  0  0  0  0
   -4.3276    3.3538    1.6572 N   0  0  0  0  0  0
   -4.5378    4.3072    0.7212 C   0  0  0  0  0  0
   -4.1001    4.2125   -0.5858 C   0  0  0  0  0  0
   -3.3939    3.0717   -0.9532 C   0  0  0  0  0  0
   -3.1435    2.0668   -0.0066 C   0  0  0  0  0  0
   -2.4012    0.9116   -0.3247 C   0  0  0  0  0  0
   -0.9568   -2.1966    1.1605 N   0  0  0  0  0  0
    0.1210   -2.8400    0.5496 O   0  0  0  0  0  0
    2.6785   -1.3913   -0.9165 C   0  0  0  0  0  0
    2.5828   -0.0083   -1.0230 C   0  0  0  0  0  0
    3.5780    0.7770   -0.4357 C   0  0  0  0  0  0
    4.6564    0.1753    0.2337 C   0  0  0  0  0  0
    5.8407    1.1723    0.9849 Cl  0  0  0  0  0  0
    4.7707   -1.2120    0.3132 C   0  0  0  0  0  0
    3.7675   -1.9634   -0.2704 C   0  0  0  0  0  0
    1.7348   -4.4458   -0.4248 H   0  0  0  0  0  0
    2.6039   -4.2657   -1.9726 H   0  0  0  0  0  0
    1.4652   -2.3341   -2.4137 H   0  0  0  0  0  0
   -2.4545   -0.6151    2.7151 H   0  0  0  0  0  0
   -3.7688    1.3940    3.2509 H   0  0  0  0  0  0
   -5.0866    5.1805    1.0656 H   0  0  0  0  0  0
   -4.3041    5.0085   -1.2955 H   0  0  0  0  0  0
   -3.0323    2.9735   -1.9739 H   0  0  0  0  0  0
   -2.0082    0.7910   -1.3335 H   0  0  0  0  0  0
    1.7311    0.4619   -1.5099 H   0  0  0  0  0  0
    3.4982    1.8614   -0.4799 H   0  0  0  0  0  0
    5.5961   -1.6888    0.8297 H   0  0  0  0  0  0
  1  2  2  0  0  0
  2  3  1  0  0  0
  2 26  1  0  0  0
  3  4  1  0  0  0
  3 27  1  0  0  0
  3 28  1  0  0  0
  4  5  1  0  0  0
  4 20  1  0  0  0
  4 29  1  0  0  0
  5  6  2  0  0  0
  5 19  1  0  0  0
  6  7  1  0  0  0
  7  8  1  0  0  0
  7 18  2  0  0  0
  8  9  1  0  0  0
  8 17  2  0  0  0
  9 10  2  0  0  0
  9 30  1  0  0  0
 10 11  1  0  0  0
 10 31  1  0  0  0
 11 12  1  0  0  0
 11 16  2  0  0  0
 12 13  2  0  0  0
 13 14  1  0  0  0
 13 32  1  0  0  0
 14 15  2  0  0  0
 14 33  1  0  0  0
 15 16  1  0  0  0
 15 34  1  0  0  0
 16 17  1  0  0  0
 17 35  1  0  0  0
 18 19  1  0  0  0
 20 21  2  0  0  0
 20 26  1  0  0  0
 21 22  1  0  0  0
 21 36  1  0  0  0
 22 23  2  0  0  0
 22 37  1  0  0  0
 23 24  1  0  0  0
 23 25  1  0  0  0
 25 26  2  0  0  0
 25 38  1  0  0  0
M  END
> <energy>
78.5711

> <i_ionizer_Ion_state_n>
0

> <i_ionizer_Tot_Q>
0

> <s_ionizer_Ion_centers>


> <s_ionizer_Ion_types>


> <s_ionizer_Ion_ctrs_in>


> <r_ionizer_Ionization_penalty>
0.00741239

> <r_ionizer_Ionization_penalty_charging>
0

> <r_ionizer_Ionization_penalty_neutral>
0.00741239

$$$$
ZINC001211861026
                    3D
 Schrodinger Suite 2019-4.
 33 36  0  0  1  0            999 V2000
    0.5144   -4.1965   -1.7085 O   0  0  0  0  0  0
    0.8094   -3.3737   -0.8618 C   0  0  0  0  0  0
    1.9374   -2.3748   -0.9431 C   0  0  0  0  0  0
    1.8499   -1.5613    0.3663 C   0  0  1  0  0  0
    1.5792   -0.1228    0.1011 C   0  0  0  0  0  0
    0.5912    0.4456   -0.5526 N   0  0  0  0  0  0
    0.8151    1.7888   -0.3240 C   0  0  0  0  0  0
   -0.1024    2.8057   -0.8055 C   0  0  0  0  0  0
   -0.8438    2.5792   -1.9753 C   0  0  0  0  0  0
   -1.7478    3.5406   -2.4306 C   0  0  0  0  0  0
   -2.6476    3.2512   -3.8674 Cl  0  0  0  0  0  0
   -1.9288    4.7318   -1.7301 C   0  0  0  0  0  0
   -1.2018    4.9622   -0.5633 C   0  0  0  0  0  0
   -0.2976    4.0030   -0.1086 C   0  0  0  0  0  0
    0.3511    4.2505    1.0383 F   0  0  0  0  0  0
    1.9326    2.0384    0.3761 N   0  0  0  0  0  0
    2.4364    0.7737    0.6651 O   0  0  0  0  0  0
    0.7290   -2.2152    1.1339 C   0  0  0  0  0  0
    0.2570   -1.8933    2.3998 C   0  0  0  0  0  0
   -0.8375   -2.6050    2.9057 C   0  0  0  0  0  0
   -1.4399   -3.6244    2.1483 C   0  0  0  0  0  0
   -2.7984   -4.4627    2.7917 Cl  0  0  0  0  0  0
   -0.9587   -3.9592    0.8850 C   0  0  0  0  0  0
    0.1218   -3.2365    0.4127 C   0  0  0  0  0  0
    1.8255   -1.7616   -1.8436 H   0  0  0  0  0  0
    2.8850   -2.9219   -0.9891 H   0  0  0  0  0  0
    2.7863   -1.6756    0.9268 H   0  0  0  0  0  0
   -0.7154    1.6522   -2.5307 H   0  0  0  0  0  0
   -2.6336    5.4793   -2.0846 H   0  0  0  0  0  0
   -1.3369    5.8791    0.0029 H   0  0  0  0  0  0
    0.7086   -1.0981    2.9884 H   0  0  0  0  0  0
   -1.2295   -2.3543    3.8892 H   0  0  0  0  0  0
   -1.4104   -4.7446    0.2871 H   0  0  0  0  0  0
  1  2  2  0  0  0
  2  3  1  0  0  0
  2 24  1  0  0  0
  3  4  1  0  0  0
  3 25  1  0  0  0
  3 26  1  0  0  0
  4  5  1  0  0  0
  4 18  1  0  0  0
  4 27  1  0  0  0
  5  6  2  0  0  0
  5 17  1  0  0  0
  6  7  1  0  0  0
  7  8  1  0  0  0
  7 16  2  0  0  0
  8  9  2  0  0  0
  8 14  1  0  0  0
  9 10  1  0  0  0
  9 28  1  0  0  0
 10 11  1  0  0  0
 10 12  2  0  0  0
 12 13  1  0  0  0
 12 29  1  0  0  0
 13 14  2  0  0  0
 13 30  1  0  0  0
 14 15  1  0  0  0
 16 17  1  0  0  0
 18 19  2  0  0  0
 18 24  1  0  0  0
 19 20  1  0  0  0
 19 31  1  0  0  0
 20 21  2  0  0  0
 20 32  1  0  0  0
 21 22  1  0  0  0
 21 23  1  0  0  0
 23 24  2  0  0  0
 23 33  1  0  0  0
M  END
> <energy>
46.183

> <i_ionizer_Ion_state_n>
0

> <i_ionizer_Tot_Q>
0

> <s_ionizer_Ion_centers>


> <s_ionizer_Ion_types>


> <s_ionizer_Ion_ctrs_in>


> <r_ionizer_Ionization_penalty>
0

> <r_ionizer_Ionization_penalty_charging>
0

> <r_ionizer_Ionization_penalty_neutral>
0

$$$$
ZINC001211861027
                    3D
 Schrodinger Suite 2019-4.
 33 36  0  0  1  0            999 V2000
    3.7082   -2.1918   -2.2465 O   0  0  0  0  0  0
    3.0850   -1.7801   -1.2834 C   0  0  0  0  0  0
    1.9652   -2.4914   -0.5722 C   0  0  0  0  0  0
    1.6639   -1.6202    0.6651 C   0  0  2  0  0  0
    0.2159   -1.2962    0.7809 C   0  0  0  0  0  0
   -0.5733   -0.6099   -0.0201 N   0  0  0  0  0  0
   -1.7372   -0.5287    0.7159 C   0  0  0  0  0  0
   -2.9066    0.1883    0.2519 C   0  0  0  0  0  0
   -3.4084   -0.0325   -1.0394 C   0  0  0  0  0  0
   -4.5645    0.6289   -1.4558 C   0  0  0  0  0  0
   -5.1927    0.3430   -3.0294 Cl  0  0  0  0  0  0
   -5.2239    1.5223   -0.6049 C   0  0  0  0  0  0
   -4.7124    1.7598    0.6714 C   0  0  0  0  0  0
   -3.5614    1.0980    1.0904 C   0  0  0  0  0  0
   -3.0779    1.3768    2.3104 F   0  0  0  0  0  0
   -1.6964   -1.1988    1.8786 N   0  0  0  0  0  0
   -0.4007   -1.6987    1.9292 O   0  0  0  0  0  0
    2.5090   -0.3901    0.4670 C   0  0  0  0  0  0
    2.5389    0.7653    1.2360 C   0  0  0  0  0  0
    3.3653    1.8184    0.8260 C   0  0  0  0  0  0
    4.1633    1.6999   -0.3240 C   0  0  0  0  0  0
    5.1396    3.0294   -0.8141 Cl  0  0  0  0  0  0
    4.1555    0.5312   -1.0801 C   0  0  0  0  0  0
    3.3211   -0.4896   -0.6562 C   0  0  0  0  0  0
    2.3038   -3.4873   -0.2735 H   0  0  0  0  0  0
    1.1088   -2.5871   -1.2482 H   0  0  0  0  0  0
    2.0134   -2.1464    1.5639 H   0  0  0  0  0  0
   -2.9110   -0.7322   -1.7096 H   0  0  0  0  0  0
   -6.1302    2.0306   -0.9283 H   0  0  0  0  0  0
   -5.2023    2.4525    1.3505 H   0  0  0  0  0  0
    1.9187    0.8714    2.1230 H   0  0  0  0  0  0
    3.3641    2.7412    1.4001 H   0  0  0  0  0  0
    4.7590    0.4243   -1.9747 H   0  0  0  0  0  0
  1  2  2  0  0  0
  2  3  1  0  0  0
  2 24  1  0  0  0
  3  4  1  0  0  0
  3 25  1  0  0  0
  3 26  1  0  0  0
  4  5  1  0  0  0
  4 18  1  0  0  0
  4 27  1  0  0  0
  5  6  2  0  0  0
  5 17  1  0  0  0
  6  7  1  0  0  0
  7  8  1  0  0  0
  7 16  2  0  0  0
  8  9  2  0  0  0
  8 14  1  0  0  0
  9 10  1  0  0  0
  9 28  1  0  0  0
 10 11  1  0  0  0
 10 12  2  0  0  0
 12 13  1  0  0  0
 12 29  1  0  0  0
 13 14  2  0  0  0
 13 30  1  0  0  0
 14 15  1  0  0  0
 16 17  1  0  0  0
 18 19  2  0  0  0
 18 24  1  0  0  0
 19 20  1  0  0  0
 19 31  1  0  0  0
 20 21  2  0  0  0
 20 32  1  0  0  0
 21 22  1  0  0  0
 21 23  1  0  0  0
 23 24  2  0  0  0
 23 33  1  0  0  0
M  END
> <energy>
47.7921

> <i_ionizer_Ion_state_n>
0

> <i_ionizer_Tot_Q>
0

> <s_ionizer_Ion_centers>


> <s_ionizer_Ion_types>


> <s_ionizer_Ion_ctrs_in>


> <r_ionizer_Ionization_penalty>
0

> <r_ionizer_Ionization_penalty_charging>
0

> <r_ionizer_Ionization_penalty_neutral>
0

$$$$
ZINC001211861050
                    3D
 Schrodinger Suite 2019-4.
 36 40  0  0  1  0            999 V2000
    2.0525   -1.7623    3.3255 O   0  0  0  0  0  0
    2.0018   -2.0647    2.1458 C   0  0  0  0  0  0
    3.0724   -1.8287    1.1103 C   0  0  0  0  0  0
    2.3581   -2.0851   -0.2387 C   0  0  2  0  0  0
    1.9133   -0.7916   -0.8420 C   0  0  0  0  0  0
    0.6930   -0.3168   -0.9413 N   0  0  0  0  0  0
    0.9102    1.0026   -1.2398 C   0  0  0  0  0  0
   -0.1977    1.9419   -1.2038 C   0  0  0  0  0  0
   -1.4140    1.5809   -1.8081 C   0  0  0  0  0  0
   -2.5564    2.3790   -1.6901 C   0  0  0  0  0  0
   -2.4256    3.5320   -0.9240 C   0  0  0  0  0  0
   -3.4235    4.4189   -0.6601 O   0  0  0  0  0  0
   -2.8979    5.3803    0.1419 C   0  0  0  0  0  0
   -1.5674    5.1299    0.3924 C   0  0  0  0  0  0
   -1.2457    3.9322   -0.3054 C   0  0  0  0  0  0
   -0.0971    3.1319   -0.4591 C   0  0  0  0  0  0
    2.1990    1.3189   -1.4384 N   0  0  0  0  0  0
    2.8700    0.1118   -1.1973 O   0  0  0  0  0  0
    1.1680   -2.9190    0.1745 C   0  0  0  0  0  0
    0.2836   -3.6032   -0.6401 C   0  0  0  0  0  0
   -0.8652   -4.1487   -0.0560 C   0  0  0  0  0  0
   -1.1186   -3.9978    1.3184 C   0  0  0  0  0  0
   -2.5717   -4.6363    1.9858 Cl  0  0  0  0  0  0
   -0.2202   -3.3298    2.1420 C   0  0  0  0  0  0
    0.9069   -2.8065    1.5400 C   0  0  0  0  0  0
    3.4801   -0.8175    1.1983 H   0  0  0  0  0  0
    3.8651   -2.5680    1.2773 H   0  0  0  0  0  0
    3.0084   -2.6364   -0.9264 H   0  0  0  0  0  0
   -1.4794    0.6423   -2.3591 H   0  0  0  0  0  0
   -3.5025    2.0984   -2.1343 H   0  0  0  0  0  0
   -3.5884    6.1501    0.4559 H   0  0  0  0  0  0
   -0.9108    5.7254    1.0103 H   0  0  0  0  0  0
    0.8314    3.3998    0.0378 H   0  0  0  0  0  0
    0.4444   -3.6869   -1.7115 H   0  0  0  0  0  0
   -1.5814   -4.6700   -0.6855 H   0  0  0  0  0  0
   -0.3948   -3.2071    3.2047 H   0  0  0  0  0  0
  1  2  2  0  0  0
  2  3  1  0  0  0
  2 25  1  0  0  0
  3  4  1  0  0  0
  3 26  1  0  0  0
  3 27  1  0  0  0
  4  5  1  0  0  0
  4 19  1  0  0  0
  4 28  1  0  0  0
  5  6  2  0  0  0
  5 18  1  0  0  0
  6  7  1  0  0  0
  7  8  1  0  0  0
  7 17  2  0  0  0
  8  9  2  0  0  0
  8 16  1  0  0  0
  9 10  1  0  0  0
  9 29  1  0  0  0
 10 11  2  0  0  0
 10 30  1  0  0  0
 11 12  1  0  0  0
 11 15  1  0  0  0
 12 13  1  0  0  0
 13 14  2  0  0  0
 13 31  1  0  0  0
 14 15  1  0  0  0
 14 32  1  0  0  0
 15 16  2  0  0  0
 16 33  1  0  0  0
 17 18  1  0  0  0
 19 20  2  0  0  0
 19 25  1  0  0  0
 20 21  1  0  0  0
 20 34  1  0  0  0
 21 22  2  0  0  0
 21 35  1  0  0  0
 22 23  1  0  0  0
 22 24  1  0  0  0
 24 25  2  0  0  0
 24 36  1  0  0  0
M  END
> <energy>
61.0706

> <i_ionizer_Ion_state_n>
0

> <i_ionizer_Tot_Q>
0

> <s_ionizer_Ion_centers>


> <s_ionizer_Ion_types>


> <s_ionizer_Ion_ctrs_in>


> <r_ionizer_Ionization_penalty>
0

> <r_ionizer_Ionization_penalty_charging>
0

> <r_ionizer_Ionization_penalty_neutral>
0

$$$$
ZINC001211861051
                    3D
 Schrodinger Suite 2019-4.
 36 40  0  0  1  0            999 V2000
    1.7485   -3.1893   -2.7586 O   0  0  0  0  0  0
    1.9682   -2.7508   -1.6446 C   0  0  0  0  0  0
    2.9671   -1.6771   -1.2862 C   0  0  0  0  0  0
    2.7099   -1.3827    0.2071 C   0  0  1  0  0  0
    2.0304   -0.0717    0.3964 C   0  0  0  0  0  0
    0.9389    0.3915   -0.1666 N   0  0  0  0  0  0
    0.7224    1.5662    0.5214 C   0  0  0  0  0  0
   -0.4639    2.3826    0.2924 C   0  0  0  0  0  0
   -0.8587    3.3554    1.2269 C   0  0  0  0  0  0
   -2.0199    4.1190    1.0490 C   0  0  0  0  0  0
   -2.7581    3.8691   -0.1033 C   0  0  0  0  0  0
   -3.9114    4.5000   -0.4550 O   0  0  0  0  0  0
   -4.3045    3.9700   -1.6420 C   0  0  0  0  0  0
   -3.4197    3.0003   -2.0574 C   0  0  0  0  0  0
   -2.4095    2.9273   -1.0626 C   0  0  0  0  0  0
   -1.2429    2.1660   -0.8636 C   0  0  0  0  0  0
    1.6689    1.8403    1.4349 N   0  0  0  0  0  0
    2.5366    0.7553    1.3527 O   0  0  0  0  0  0
    1.8153   -2.5149    0.6467 C   0  0  0  0  0  0
    1.3745   -2.8047    1.9307 C   0  0  0  0  0  0
    0.4320   -3.8265    2.0970 C   0  0  0  0  0  0
   -0.0498   -4.5433    0.9884 C   0  0  0  0  0  0
   -1.2372   -5.7654    1.2276 Cl  0  0  0  0  0  0
    0.4060   -4.2667   -0.2980 C   0  0  0  0  0  0
    1.3351   -3.2512   -0.4311 C   0  0  0  0  0  0
    3.9725   -2.0913   -1.4285 H   0  0  0  0  0  0
    2.8385   -0.8021   -1.9306 H   0  0  0  0  0  0
    3.6581   -1.4096    0.7576 H   0  0  0  0  0  0
   -0.2649    3.5241    2.1252 H   0  0  0  0  0  0
   -2.3365    4.8614    1.7703 H   0  0  0  0  0  0
   -5.2180    4.3757   -2.0544 H   0  0  0  0  0  0
   -3.4936    2.4183   -2.9655 H   0  0  0  0  0  0
   -0.9554    1.4160   -1.5950 H   0  0  0  0  0  0
    1.7179   -2.2332    2.7899 H   0  0  0  0  0  0
    0.0594   -4.0513    3.0946 H   0  0  0  0  0  0
    0.0438   -4.8067   -1.1657 H   0  0  0  0  0  0
  1  2  2  0  0  0
  2  3  1  0  0  0
  2 25  1  0  0  0
  3  4  1  0  0  0
  3 26  1  0  0  0
  3 27  1  0  0  0
  4  5  1  0  0  0
  4 19  1  0  0  0
  4 28  1  0  0  0
  5  6  2  0  0  0
  5 18  1  0  0  0
  6  7  1  0  0  0
  7  8  1  0  0  0
  7 17  2  0  0  0
  8  9  2  0  0  0
  8 16  1  0  0  0
  9 10  1  0  0  0
  9 29  1  0  0  0
 10 11  2  0  0  0
 10 30  1  0  0  0
 11 12  1  0  0  0
 11 15  1  0  0  0
 12 13  1  0  0  0
 13 14  2  0  0  0
 13 31  1  0  0  0
 14 15  1  0  0  0
 14 32  1  0  0  0
 15 16  2  0  0  0
 16 33  1  0  0  0
 17 18  1  0  0  0
 19 20  2  0  0  0
 19 25  1  0  0  0
 20 21  1  0  0  0
 20 34  1  0  0  0
 21 22  2  0  0  0
 21 35  1  0  0  0
 22 23  1  0  0  0
 22 24  1  0  0  0
 24 25  2  0  0  0
 24 36  1  0  0  0
M  END
> <energy>
54.4775

> <i_ionizer_Ion_state_n>
0

> <i_ionizer_Tot_Q>
0

> <s_ionizer_Ion_centers>


> <s_ionizer_Ion_types>


> <s_ionizer_Ion_ctrs_in>


> <r_ionizer_Ionization_penalty>
0

> <r_ionizer_Ionization_penalty_charging>
0

> <r_ionizer_Ionization_penalty_neutral>
0

$$$$
ZINC001211861085
                    3D
 Schrodinger Suite 2019-4.
 40 44  0  0  1  0            999 V2000
    6.2874   -0.6239    0.7997 C   0  0  0  0  0  0
    5.3089   -0.1074   -0.1329 N   0  0  0  0  0  0
    5.5458    0.1224   -1.4623 C   0  0  0  0  0  0
    4.3959    0.6401   -2.0117 C   0  0  0  0  0  0
    3.4265    0.7361   -0.9768 C   0  0  0  0  0  0
    2.0904    1.1867   -0.9363 C   0  0  0  0  0  0
    1.3794    1.1347    0.2719 C   0  0  0  0  0  0
   -0.0035    1.5631    0.3035 C   0  0  0  0  0  0
   -0.4171    2.7395    0.8018 N   0  0  0  0  0  0
   -1.8051    2.6845    0.6589 O   0  0  0  0  0  0
   -2.0871    1.4722    0.0989 C   0  0  0  0  0  0
   -3.5258    1.1348   -0.0905 C   0  0  1  0  0  0
   -3.8979    1.1067   -1.5891 C   0  0  0  0  0  0
   -4.2102   -0.3397   -1.8867 C   0  0  0  0  0  0
   -4.4895   -0.8110   -2.9741 O   0  0  0  0  0  0
   -4.1847   -1.1111   -0.6517 C   0  0  0  0  0  0
   -4.4354   -2.4602   -0.4774 C   0  0  0  0  0  0
   -4.3456   -2.9575    0.8195 C   0  0  0  0  0  0
   -4.5963   -4.6362    1.1099 Cl  0  0  0  0  0  0
   -4.0400   -2.1124    1.8980 C   0  0  0  0  0  0
   -3.7898   -0.7506    1.6896 C   0  0  0  0  0  0
   -3.8498   -0.2566    0.3938 C   0  0  0  0  0  0
   -1.0170    0.7595   -0.1653 N   0  0  0  0  0  0
    1.9908    0.6368    1.4267 C   0  0  0  0  0  0
    3.3175    0.1890    1.4098 C   0  0  0  0  0  0
    4.0167    0.2497    0.1937 C   0  0  0  0  0  0
    7.2146   -0.8514    0.2689 H   0  0  0  0  0  0
    6.4735    0.1357    1.5634 H   0  0  0  0  0  0
    5.8887   -1.5364    1.2475 H   0  0  0  0  0  0
    6.5057   -0.0978   -1.9123 H   0  0  0  0  0  0
    4.2632    0.9247   -3.0475 H   0  0  0  0  0  0
    1.6173    1.5613   -1.8395 H   0  0  0  0  0  0
   -4.1565    1.8651    0.4321 H   0  0  0  0  0  0
   -3.0936    1.4599   -2.2405 H   0  0  0  0  0  0
   -4.8045    1.6941   -1.7726 H   0  0  0  0  0  0
   -4.6759   -3.0968   -1.3220 H   0  0  0  0  0  0
   -3.9765   -2.5184    2.9047 H   0  0  0  0  0  0
   -3.5321   -0.1083    2.5278 H   0  0  0  0  0  0
    1.4313    0.5808    2.3591 H   0  0  0  0  0  0
    3.7800   -0.2020    2.3101 H   0  0  0  0  0  0
  1  2  1  0  0  0
  1 27  1  0  0  0
  1 28  1  0  0  0
  1 29  1  0  0  0
  2  3  1  0  0  0
  2 26  1  0  0  0
  3  4  2  0  0  0
  3 30  1  0  0  0
  4  5  1  0  0  0
  4 31  1  0  0  0
  5  6  1  0  0  0
  5 26  2  0  0  0
  6  7  2  0  0  0
  6 32  1  0  0  0
  7  8  1  0  0  0
  7 24  1  0  0  0
  8  9  2  0  0  0
  8 23  1  0  0  0
  9 10  1  0  0  0
 10 11  1  0  0  0
 11 12  1  0  0  0
 11 23  2  0  0  0
 12 13  1  0  0  0
 12 22  1  0  0  0
 12 33  1  0  0  0
 13 14  1  0  0  0
 13 34  1  0  0  0
 13 35  1  0  0  0
 14 15  2  0  0  0
 14 16  1  0  0  0
 16 17  2  0  0  0
 16 22  1  0  0  0
 17 18  1  0  0  0
 17 36  1  0  0  0
 18 19  1  0  0  0
 18 20  2  0  0  0
 20 21  1  0  0  0
 20 37  1  0  0  0
 21 22  2  0  0  0
 21 38  1  0  0  0
 24 25  2  0  0  0
 24 39  1  0  0  0
 25 26  1  0  0  0
 25 40  1  0  0  0
M  END
> <energy>
61.885

> <i_ionizer_Ion_state_n>
0

> <i_ionizer_Tot_Q>
0

> <s_ionizer_Ion_centers>


> <s_ionizer_Ion_types>


> <s_ionizer_Ion_ctrs_in>


> <r_ionizer_Ionization_penalty>
0

> <r_ionizer_Ionization_penalty_charging>
0

> <r_ionizer_Ionization_penalty_neutral>
0

$$$$
ZINC001211861086
                    3D
 Schrodinger Suite 2019-4.
 40 44  0  0  1  0            999 V2000
    6.2533    0.9578    0.3753 C   0  0  0  0  0  0
    5.0197    0.5330    1.0000 N   0  0  0  0  0  0
    4.7179    0.7290    2.3224 C   0  0  0  0  0  0
    3.4489    0.2445    2.5409 C   0  0  0  0  0  0
    2.9491   -0.2371    1.3010 C   0  0  0  0  0  0
    1.7098   -0.7724    0.8945 C   0  0  0  0  0  0
    1.5143   -1.1511   -0.4433 C   0  0  0  0  0  0
    0.1955   -1.5798   -0.8836 C   0  0  0  0  0  0
   -0.0361   -2.4777   -1.8555 N   0  0  0  0  0  0
   -1.4253   -2.4584   -2.0000 O   0  0  0  0  0  0
   -1.8930   -1.5341   -1.1129 C   0  0  0  0  0  0
   -3.3518   -1.2265   -1.1642 C   0  0  2  0  0  0
   -3.7108   -0.4984   -2.4811 C   0  0  0  0  0  0
   -3.8461    0.9525   -2.0868 C   0  0  0  0  0  0
   -3.9128    1.9081   -2.8407 O   0  0  0  0  0  0
   -3.9647    1.0431   -0.6393 C   0  0  0  0  0  0
   -4.2494    2.1519    0.1364 C   0  0  0  0  0  0
   -4.3480    1.9513    1.5107 C   0  0  0  0  0  0
   -4.7077    3.2826    2.5405 Cl  0  0  0  0  0  0
   -4.1618    0.6750    2.0718 C   0  0  0  0  0  0
   -3.8610   -0.4254    1.2618 C   0  0  0  0  0  0
   -3.7612   -0.2287   -0.1072 C   0  0  0  0  0  0
   -0.9462   -1.0052   -0.3731 N   0  0  0  0  0  0
    2.5667   -1.0283   -1.3579 C   0  0  0  0  0  0
    3.8062   -0.4963   -0.9778 C   0  0  0  0  0  0
    3.9661   -0.0846    0.3551 C   0  0  0  0  0  0
    6.8722    1.4822    1.1099 H   0  0  0  0  0  0
    6.7823    0.0737    0.0094 H   0  0  0  0  0  0
    6.0098    1.6368   -0.4454 H   0  0  0  0  0  0
    5.4195    1.2022    2.9968 H   0  0  0  0  0  0
    2.9223    0.2604    3.4859 H   0  0  0  0  0  0
    0.9012   -0.8587    1.6167 H   0  0  0  0  0  0
   -3.9369   -2.1488   -1.0721 H   0  0  0  0  0  0
   -2.9547   -0.6166   -3.2649 H   0  0  0  0  0  0
   -4.6871   -0.8319   -2.8542 H   0  0  0  0  0  0
   -4.3903    3.1275   -0.3153 H   0  0  0  0  0  0
   -4.2371    0.5390    3.1500 H   0  0  0  0  0  0
   -3.6903   -1.4013    1.7052 H   0  0  0  0  0  0
    2.4175   -1.3080   -2.4000 H   0  0  0  0  0  0
    4.5999   -0.3812   -1.7089 H   0  0  0  0  0  0
  1  2  1  0  0  0
  1 27  1  0  0  0
  1 28  1  0  0  0
  1 29  1  0  0  0
  2  3  1  0  0  0
  2 26  1  0  0  0
  3  4  2  0  0  0
  3 30  1  0  0  0
  4  5  1  0  0  0
  4 31  1  0  0  0
  5  6  1  0  0  0
  5 26  2  0  0  0
  6  7  2  0  0  0
  6 32  1  0  0  0
  7  8  1  0  0  0
  7 24  1  0  0  0
  8  9  2  0  0  0
  8 23  1  0  0  0
  9 10  1  0  0  0
 10 11  1  0  0  0
 11 12  1  0  0  0
 11 23  2  0  0  0
 12 13  1  0  0  0
 12 22  1  0  0  0
 12 33  1  0  0  0
 13 14  1  0  0  0
 13 34  1  0  0  0
 13 35  1  0  0  0
 14 15  2  0  0  0
 14 16  1  0  0  0
 16 17  2  0  0  0
 16 22  1  0  0  0
 17 18  1  0  0  0
 17 36  1  0  0  0
 18 19  1  0  0  0
 18 20  2  0  0  0
 20 21  1  0  0  0
 20 37  1  0  0  0
 21 22  2  0  0  0
 21 38  1  0  0  0
 24 25  2  0  0  0
 24 39  1  0  0  0
 25 26  1  0  0  0
 25 40  1  0  0  0
M  END
> <energy>
60.2195

> <i_ionizer_Ion_state_n>
0

> <i_ionizer_Tot_Q>
0

> <s_ionizer_Ion_centers>


> <s_ionizer_Ion_types>


> <s_ionizer_Ion_ctrs_in>


> <r_ionizer_Ionization_penalty>
0

> <r_ionizer_Ionization_penalty_charging>
0

> <r_ionizer_Ionization_penalty_neutral>
0

$$$$
ZINC001211862752
                    3D
 Schrodinger Suite 2019-4.
 50 51  0  0  1  0            999 V2000
    4.6405   -1.0356   -1.1866 C   0  0  0  0  0  0
    3.6414   -0.7266   -0.1770 N   0  0  0  0  0  0
    2.5135   -1.6397   -0.0910 C   0  0  0  0  0  0
    3.7779    0.4378    0.5789 C   0  0  0  0  0  0
    4.7564    1.1782    0.5438 O   0  0  0  0  0  0
    2.6409    0.8619    1.4045 C   0  0  0  0  0  0
    1.5306    1.4236    0.7686 C   0  0  0  0  0  0
    0.4145    1.8194    1.5140 C   0  0  0  0  0  0
   -0.7445    2.3667    0.9071 N   0  0  0  0  0  0
   -0.9719    2.4059   -0.4937 C   0  0  0  0  0  0
   -0.2833    3.3349   -1.2884 C   0  0  0  0  0  0
   -0.4472    3.3516   -2.6768 C   0  0  0  0  0  0
   -1.2950    2.4273   -3.2862 C   0  0  0  0  0  0
   -1.9649    1.4891   -2.5057 C   0  0  0  0  0  0
   -2.7629    0.5955   -3.1065 F   0  0  0  0  0  0
   -1.7945    1.4584   -1.1209 C   0  0  0  0  0  0
   -2.4830    0.5295   -0.3838 O   0  0  0  0  0  0
   -1.6715   -0.6232   -0.1089 C   0  0  0  0  0  0
   -2.5618   -1.8729    0.0827 C   0  0  0  0  0  0
   -3.6748   -1.5941    1.1074 C   0  0  0  0  0  0
   -1.6921   -3.0344    0.5885 C   0  0  0  0  0  0
   -3.2028   -2.2677   -1.2584 C   0  0  0  0  0  0
    0.4730    1.7174    2.9124 C   0  0  0  0  0  0
    1.5959    1.1726    3.5483 C   0  0  0  0  0  0
    2.6773    0.7386    2.7868 C   0  0  0  0  0  0
    3.7308    0.1927    3.4051 F   0  0  0  0  0  0
    5.4437   -0.2962   -1.2135 H   0  0  0  0  0  0
    4.1517   -1.0556   -2.1655 H   0  0  0  0  0  0
    5.0652   -2.0228   -0.9772 H   0  0  0  0  0  0
    1.9698   -1.5341    0.8490 H   0  0  0  0  0  0
    1.8370   -1.4408   -0.9279 H   0  0  0  0  0  0
    2.8790   -2.6697   -0.1596 H   0  0  0  0  0  0
    1.5496    1.5202   -0.3129 H   0  0  0  0  0  0
   -1.5831    2.0075    1.3670 H   0  0  0  0  0  0
    0.3807    4.0562   -0.8154 H   0  0  0  0  0  0
    0.0857    4.0865   -3.2743 H   0  0  0  0  0  0
   -1.4381    2.4320   -4.3613 H   0  0  0  0  0  0
   -0.9381   -0.8105   -0.9065 H   0  0  0  0  0  0
   -1.1222   -0.4369    0.8192 H   0  0  0  0  0  0
   -3.2546   -1.3110    2.0783 H   0  0  0  0  0  0
   -4.2999   -2.4808    1.2594 H   0  0  0  0  0  0
   -4.3354   -0.7835    0.7797 H   0  0  0  0  0  0
   -1.2190   -2.7884    1.5455 H   0  0  0  0  0  0
   -2.2891   -3.9411    0.7401 H   0  0  0  0  0  0
   -0.8954   -3.2733   -0.1237 H   0  0  0  0  0  0
   -3.8347   -1.4658   -1.6537 H   0  0  0  0  0  0
   -3.8303   -3.1598   -1.1513 H   0  0  0  0  0  0
   -2.4376   -2.4917   -2.0095 H   0  0  0  0  0  0
   -0.3606    2.0646    3.5193 H   0  0  0  0  0  0
    1.6330    1.0882    4.6304 H   0  0  0  0  0  0
  1  2  1  0  0  0
  1 27  1  0  0  0
  1 28  1  0  0  0
  1 29  1  0  0  0
  2  3  1  0  0  0
  2  4  1  0  0  0
  3 30  1  0  0  0
  3 31  1  0  0  0
  3 32  1  0  0  0
  4  5  2  0  0  0
  4  6  1  0  0  0
  6  7  2  0  0  0
  6 25  1  0  0  0
  7  8  1  0  0  0
  7 33  1  0  0  0
  8  9  1  0  0  0
  8 23  2  0  0  0
  9 10  1  0  0  0
  9 34  1  0  0  0
 10 11  2  0  0  0
 10 16  1  0  0  0
 11 12  1  0  0  0
 11 35  1  0  0  0
 12 13  2  0  0  0
 12 36  1  0  0  0
 13 14  1  0  0  0
 13 37  1  0  0  0
 14 15  1  0  0  0
 14 16  2  0  0  0
 16 17  1  0  0  0
 17 18  1  0  0  0
 18 19  1  0  0  0
 18 38  1  0  0  0
 18 39  1  0  0  0
 19 20  1  0  0  0
 19 21  1  0  0  0
 19 22  1  0  0  0
 20 40  1  0  0  0
 20 41  1  0  0  0
 20 42  1  0  0  0
 21 43  1  0  0  0
 21 44  1  0  0  0
 21 45  1  0  0  0
 22 46  1  0  0  0
 22 47  1  0  0  0
 22 48  1  0  0  0
 23 24  1  0  0  0
 23 49  1  0  0  0
 24 25  2  0  0  0
 24 50  1  0  0  0
 25 26  1  0  0  0
M  END
> <energy>
67.413

> <i_ionizer_Ion_state_n>
0

> <i_ionizer_Tot_Q>
0

> <s_ionizer_Ion_centers>


> <s_ionizer_Ion_types>


> <s_ionizer_Ion_ctrs_in>


> <r_ionizer_Ionization_penalty>
0

> <r_ionizer_Ionization_penalty_charging>
0

> <r_ionizer_Ionization_penalty_neutral>
0

$$$$
ZINC001211862754
                    3D
 Schrodinger Suite 2019-4.
 50 51  0  0  1  0            999 V2000
    6.0511    1.6271    0.7337 C   0  0  0  0  0  0
    4.9317    0.7215    0.5346 N   0  0  0  0  0  0
    3.8679    1.1931   -0.3378 C   0  0  0  0  0  0
    4.8196   -0.3764    1.3902 C   0  0  0  0  0  0
    5.7214   -0.7610    2.1338 O   0  0  0  0  0  0
    3.5472   -1.1158    1.4490 C   0  0  0  0  0  0
    3.0611   -1.8462    0.3538 C   0  0  0  0  0  0
    1.8316   -2.5117    0.4539 C   0  0  0  0  0  0
    1.2193   -3.0983   -0.6992 N   0  0  0  0  0  0
    0.0314   -2.4858   -1.1985 C   0  0  0  0  0  0
    0.1120   -1.3720   -2.0471 C   0  0  0  0  0  0
   -1.0207   -0.5975   -2.3143 C   0  0  0  0  0  0
   -2.2357   -0.9120   -1.7065 C   0  0  0  0  0  0
   -3.3556   -0.1359   -1.8391 O   0  0  0  0  0  0
   -3.1481    1.2521   -1.5352 C   0  0  0  0  0  0
   -4.0652    1.7199   -0.3737 C   0  0  0  0  0  0
   -3.7577    0.9205    0.9038 C   0  0  0  0  0  0
   -5.5485    1.5362   -0.7422 C   0  0  0  0  0  0
   -3.7993    3.2088   -0.0940 C   0  0  0  0  0  0
   -2.3338   -2.0632   -0.9284 C   0  0  0  0  0  0
   -3.4993   -2.3889   -0.3482 F   0  0  0  0  0  0
   -1.2122   -2.8448   -0.6674 C   0  0  0  0  0  0
    1.1350   -2.4727    1.6739 C   0  0  0  0  0  0
    1.6334   -1.7620    2.7682 C   0  0  0  0  0  0
    2.8379   -1.0858    2.6476 C   0  0  0  0  0  0
    3.2776   -0.3748    3.6973 F   0  0  0  0  0  0
    6.8277    1.2021    1.3757 H   0  0  0  0  0  0
    6.4818    1.8757   -0.2394 H   0  0  0  0  0  0
    5.6735    2.5388    1.2064 H   0  0  0  0  0  0
    4.1917    2.0831   -0.8843 H   0  0  0  0  0  0
    3.6263    0.4197   -1.0700 H   0  0  0  0  0  0
    2.9789    1.4249    0.2494 H   0  0  0  0  0  0
    3.6349   -1.8704   -0.5694 H   0  0  0  0  0  0
    1.9081   -3.1491   -1.4503 H   0  0  0  0  0  0
    1.0693   -1.0701   -2.4653 H   0  0  0  0  0  0
   -0.9317    0.2701   -2.9639 H   0  0  0  0  0  0
   -3.3829    1.8160   -2.4460 H   0  0  0  0  0  0
   -2.1058    1.4817   -1.2714 H   0  0  0  0  0  0
   -2.6840    0.9192    1.1189 H   0  0  0  0  0  0
   -4.2615    1.3556    1.7752 H   0  0  0  0  0  0
   -4.0884   -0.1201    0.8239 H   0  0  0  0  0  0
   -5.7635    0.5121   -1.0664 H   0  0  0  0  0  0
   -6.1996    1.7540    0.1128 H   0  0  0  0  0  0
   -5.8388    2.2116   -1.5551 H   0  0  0  0  0  0
   -3.9829    3.8201   -0.9852 H   0  0  0  0  0  0
   -2.7622    3.3757    0.2176 H   0  0  0  0  0  0
   -4.4478    3.5879    0.7048 H   0  0  0  0  0  0
   -1.3103   -3.7012   -0.0069 H   0  0  0  0  0  0
    0.1849   -2.9903    1.7788 H   0  0  0  0  0  0
    1.0806   -1.7216    3.7017 H   0  0  0  0  0  0
  1  2  1  0  0  0
  1 27  1  0  0  0
  1 28  1  0  0  0
  1 29  1  0  0  0
  2  3  1  0  0  0
  2  4  1  0  0  0
  3 30  1  0  0  0
  3 31  1  0  0  0
  3 32  1  0  0  0
  4  5  2  0  0  0
  4  6  1  0  0  0
  6  7  2  0  0  0
  6 25  1  0  0  0
  7  8  1  0  0  0
  7 33  1  0  0  0
  8  9  1  0  0  0
  8 23  2  0  0  0
  9 10  1  0  0  0
  9 34  1  0  0  0
 10 11  2  0  0  0
 10 22  1  0  0  0
 11 12  1  0  0  0
 11 35  1  0  0  0
 12 13  2  0  0  0
 12 36  1  0  0  0
 13 14  1  0  0  0
 13 20  1  0  0  0
 14 15  1  0  0  0
 15 16  1  0  0  0
 15 37  1  0  0  0
 15 38  1  0  0  0
 16 17  1  0  0  0
 16 18  1  0  0  0
 16 19  1  0  0  0
 17 39  1  0  0  0
 17 40  1  0  0  0
 17 41  1  0  0  0
 18 42  1  0  0  0
 18 43  1  0  0  0
 18 44  1  0  0  0
 19 45  1  0  0  0
 19 46  1  0  0  0
 19 47  1  0  0  0
 20 21  1  0  0  0
 20 22  2  0  0  0
 22 48  1  0  0  0
 23 24  1  0  0  0
 23 49  1  0  0  0
 24 25  2  0  0  0
 24 50  1  0  0  0
 25 26  1  0  0  0
M  END
> <energy>
64.4557

> <i_ionizer_Ion_state_n>
0

> <i_ionizer_Tot_Q>
0

> <s_ionizer_Ion_centers>


> <s_ionizer_Ion_types>


> <s_ionizer_Ion_ctrs_in>


> <r_ionizer_Ionization_penalty>
0

> <r_ionizer_Ionization_penalty_charging>
0

> <r_ionizer_Ionization_penalty_neutral>
0

$$$$
ZINC001211863009
                    3D
 Schrodinger Suite 2019-4.
 47 49  0  0  1  0            999 V2000
    4.4720    1.0564   -1.7667 C   0  0  0  0  0  0
    3.7452    1.8604   -0.7951 N   0  0  0  0  0  0
    3.6197    3.2760   -1.1017 C   0  0  0  0  0  0
    3.1808    1.3690    0.3800 C   0  0  0  0  0  0
    2.6870    2.0799    1.2522 O   0  0  0  0  0  0
    3.0829   -0.0899    0.5578 C   0  0  0  0  0  0
    2.2770   -0.8304   -0.3156 C   0  0  0  0  0  0
    2.0807   -2.2012   -0.1013 C   0  0  0  0  0  0
    1.1415   -2.9295   -0.8916 N   0  0  0  0  0  0
   -0.2487   -2.7767   -0.5889 C   0  0  0  0  0  0
   -0.8300   -3.5269    0.4428 C   0  0  0  0  0  0
   -2.1589   -3.3106    0.8234 C   0  0  0  0  0  0
   -2.9038   -2.3095    0.2039 C   0  0  0  0  0  0
   -2.3083   -1.5217   -0.7790 C   0  0  0  0  0  0
   -2.9934   -0.4783   -1.3614 O   0  0  0  0  0  0
   -3.3164    0.5533   -0.5002 C   0  0  0  0  0  0
   -2.3594    1.1704    0.3085 C   0  0  0  0  0  0
   -2.7413    2.1974    1.1692 C   0  0  0  0  0  0
   -4.0712    2.6241    1.1951 C   0  0  0  0  0  0
   -5.0223    2.0634    0.3362 C   0  0  0  0  0  0
   -6.3708    2.4177    0.4591 N   0  0  0  0  0  0
   -4.6418    0.9971   -0.4873 C   0  0  0  0  0  0
   -1.0028   -1.7688   -1.2042 C   0  0  0  0  0  0
    2.6776   -2.8116    1.0067 C   0  0  0  0  0  0
    3.4881   -2.0713    1.8715 C   0  0  0  0  0  0
    3.6853   -0.7107    1.6456 C   0  0  0  0  0  0
    4.4658   -0.0239    2.4926 F   0  0  0  0  0  0
    5.3707    1.5966   -2.0751 H   0  0  0  0  0  0
    3.8262    0.8926   -2.6329 H   0  0  0  0  0  0
    4.7802    0.0924   -1.3552 H   0  0  0  0  0  0
    3.0475    3.8164   -0.3411 H   0  0  0  0  0  0
    4.6197    3.7144   -1.1726 H   0  0  0  0  0  0
    3.1094    3.3805   -2.0650 H   0  0  0  0  0  0
    1.7614   -0.3184   -1.1228 H   0  0  0  0  0  0
    1.2565   -2.6152   -1.8569 H   0  0  0  0  0  0
   -0.2452   -4.2823    0.9636 H   0  0  0  0  0  0
   -2.6067   -3.9048    1.6168 H   0  0  0  0  0  0
   -3.9330   -2.1274    0.5058 H   0  0  0  0  0  0
   -1.3222    0.8532    0.2871 H   0  0  0  0  0  0
   -2.0008    2.6583    1.8215 H   0  0  0  0  0  0
   -4.3554    3.4056    1.8940 H   0  0  0  0  0  0
   -6.5113    3.3682    0.7872 H   0  0  0  0  0  0
   -6.9244    2.2042   -0.3637 H   0  0  0  0  0  0
   -5.3749    0.5037   -1.1160 H   0  0  0  0  0  0
   -0.5686   -1.1343   -1.9700 H   0  0  0  0  0  0
    2.4921   -3.8647    1.2076 H   0  0  0  0  0  0
    3.9439   -2.5434    2.7361 H   0  0  0  0  0  0
  1  2  1  0  0  0
  1 28  1  0  0  0
  1 29  1  0  0  0
  1 30  1  0  0  0
  2  3  1  0  0  0
  2  4  1  0  0  0
  3 31  1  0  0  0
  3 32  1  0  0  0
  3 33  1  0  0  0
  4  5  2  0  0  0
  4  6  1  0  0  0
  6  7  2  0  0  0
  6 26  1  0  0  0
  7  8  1  0  0  0
  7 34  1  0  0  0
  8  9  1  0  0  0
  8 24  2  0  0  0
  9 10  1  0  0  0
  9 35  1  0  0  0
 10 11  2  0  0  0
 10 23  1  0  0  0
 11 12  1  0  0  0
 11 36  1  0  0  0
 12 13  2  0  0  0
 12 37  1  0  0  0
 13 14  1  0  0  0
 13 38  1  0  0  0
 14 15  1  0  0  0
 14 23  2  0  0  0
 15 16  1  0  0  0
 16 17  2  0  0  0
 16 22  1  0  0  0
 17 18  1  0  0  0
 17 39  1  0  0  0
 18 19  2  0  0  0
 18 40  1  0  0  0
 19 20  1  0  0  0
 19 41  1  0  0  0
 20 21  1  0  0  0
 20 22  2  0  0  0
 21 42  1  0  0  0
 21 43  1  0  0  0
 22 44  1  0  0  0
 23 45  1  0  0  0
 24 25  1  0  0  0
 24 46  1  0  0  0
 25 26  2  0  0  0
 25 47  1  0  0  0
 26 27  1  0  0  0
M  END
> <energy>
49.5159

> <i_ionizer_Ion_state_n>
0

> <i_ionizer_Tot_Q>
0

> <s_ionizer_Ion_centers>


> <s_ionizer_Ion_types>


> <s_ionizer_Ion_ctrs_in>


> <r_ionizer_Ionization_penalty>
0.000745426

> <r_ionizer_Ionization_penalty_charging>
0

> <r_ionizer_Ionization_penalty_neutral>
0.000745426

$$$$
ZINC001211863069
                    3D
 Schrodinger Suite 2019-4.
 40 41  0  0  1  0            999 V2000
    4.4054    2.3751    2.0547 C   0  0  0  0  0  0
    3.6367    1.2885    1.3528 C   0  0  0  0  0  0
    3.2402    0.1656    2.0873 C   0  0  0  0  0  0
    2.5178   -0.8591    1.4792 C   0  0  0  0  0  0
    2.1902   -0.8001    0.1198 C   0  0  0  0  0  0
    1.4562   -1.8843   -0.4323 N   0  0  0  0  0  0
    0.0605   -1.8490   -0.6901 C   0  0  0  0  0  0
   -0.4404   -2.5572   -1.7997 C   0  0  0  0  0  0
   -1.8082   -2.5923   -2.0762 C   0  0  0  0  0  0
   -2.6950   -1.9482   -1.2271 C   0  0  0  0  0  0
   -4.0067   -1.9994   -1.4985 F   0  0  0  0  0  0
   -2.2217   -1.2717   -0.1076 C   0  0  0  0  0  0
   -3.1948   -0.6692    0.8090 C   0  0  0  0  0  0
   -3.5543   -1.3518    1.7637 O   0  0  0  0  0  0
   -3.6576    0.6157    0.5397 N   0  0  0  0  0  0
   -4.7783    1.1355    1.3080 C   0  0  0  0  0  0
   -3.2504    1.4011   -0.6128 C   0  0  0  0  0  0
   -0.8494   -1.2229    0.1736 C   0  0  0  0  0  0
    2.5974    0.3089   -0.6558 C   0  0  0  0  0  0
    2.2758    0.3925   -2.1276 C   0  0  0  0  0  0
    3.3078    1.3548   -0.0179 C   0  0  0  0  0  0
    3.8251    2.9075   -1.0177 Br  0  0  0  0  0  0
    4.5608    2.1435    3.1130 H   0  0  0  0  0  0
    5.3943    2.4961    1.6032 H   0  0  0  0  0  0
    3.8585    3.3208    2.0107 H   0  0  0  0  0  0
    3.4868    0.0829    3.1428 H   0  0  0  0  0  0
    2.2153   -1.7179    2.0738 H   0  0  0  0  0  0
    1.9540   -2.2262   -1.2515 H   0  0  0  0  0  0
    0.2376   -3.0885   -2.4617 H   0  0  0  0  0  0
   -2.1880   -3.1339   -2.9385 H   0  0  0  0  0  0
   -4.5341    2.1459    1.6516 H   0  0  0  0  0  0
   -5.0121    0.5133    2.1767 H   0  0  0  0  0  0
   -5.6633    1.1790    0.6634 H   0  0  0  0  0  0
   -3.2326    2.4607   -0.3369 H   0  0  0  0  0  0
   -2.2523    1.1221   -0.9600 H   0  0  0  0  0  0
   -3.9709    1.2391   -1.4212 H   0  0  0  0  0  0
   -0.5035   -0.7138    1.0691 H   0  0  0  0  0  0
    3.1767    0.6095   -2.7100 H   0  0  0  0  0  0
    1.5274    1.1685   -2.3098 H   0  0  0  0  0  0
    1.8888   -0.5411   -2.5392 H   0  0  0  0  0  0
  1  2  1  0  0  0
  1 23  1  0  0  0
  1 24  1  0  0  0
  1 25  1  0  0  0
  2  3  2  0  0  0
  2 21  1  0  0  0
  3  4  1  0  0  0
  3 26  1  0  0  0
  4  5  2  0  0  0
  4 27  1  0  0  0
  5  6  1  0  0  0
  5 19  1  0  0  0
  6  7  1  0  0  0
  6 28  1  0  0  0
  7  8  2  0  0  0
  7 18  1  0  0  0
  8  9  1  0  0  0
  8 29  1  0  0  0
  9 10  2  0  0  0
  9 30  1  0  0  0
 10 11  1  0  0  0
 10 12  1  0  0  0
 12 13  1  0  0  0
 12 18  2  0  0  0
 13 14  2  0  0  0
 13 15  1  0  0  0
 15 16  1  0  0  0
 15 17  1  0  0  0
 16 31  1  0  0  0
 16 32  1  0  0  0
 16 33  1  0  0  0
 17 34  1  0  0  0
 17 35  1  0  0  0
 17 36  1  0  0  0
 18 37  1  0  0  0
 19 20  1  0  0  0
 19 21  2  0  0  0
 20 38  1  0  0  0
 20 39  1  0  0  0
 20 40  1  0  0  0
 21 22  1  0  0  0
M  END
> <energy>
39.6468

> <i_ionizer_Ion_state_n>
0

> <i_ionizer_Tot_Q>
0

> <s_ionizer_Ion_centers>


> <s_ionizer_Ion_types>


> <s_ionizer_Ion_ctrs_in>


> <r_ionizer_Ionization_penalty>
0

> <r_ionizer_Ionization_penalty_charging>
0

> <r_ionizer_Ionization_penalty_neutral>
0

$$$$
ZINC001211863098
                    3D
 Schrodinger Suite 2019-4.
 48 50  0  0  1  0            999 V2000
    3.9323    0.7125    1.8236 C   0  0  0  0  0  0
    2.8873    1.7191    1.9328 N   0  0  0  0  0  0
    2.6234    2.2294    3.2673 C   0  0  0  0  0  0
    1.9954    2.0280    0.9105 C   0  0  0  0  0  0
    1.0611    2.8223    1.0145 O   0  0  0  0  0  0
    2.1074    1.2971   -0.3550 C   0  0  0  0  0  0
    1.4185    0.0872   -0.4858 C   0  0  0  0  0  0
    1.4316   -0.5997   -1.7041 C   0  0  0  0  0  0
    0.6335   -1.7541   -1.9478 N   0  0  0  0  0  0
   -0.0408   -2.4747   -0.9135 C   0  0  0  0  0  0
    0.6791   -3.4087   -0.1556 C   0  0  0  0  0  0
    0.0666   -4.0675    0.9111 C   0  0  0  0  0  0
   -1.2541   -3.7696    1.2449 C   0  0  0  0  0  0
   -1.9635   -2.8248    0.5072 C   0  0  0  0  0  0
   -3.2314   -2.5874    0.8675 F   0  0  0  0  0  0
   -1.3735   -2.1637   -0.5719 C   0  0  0  0  0  0
   -1.9767   -1.2164   -1.3639 O   0  0  0  0  0  0
   -3.0045   -0.4235   -0.7720 C   0  0  0  0  0  0
   -3.4399    0.6330   -1.7833 C   0  0  0  0  0  0
   -4.1213    1.7038   -0.9445 C   0  0  0  0  0  0
   -3.4853    1.6145    0.4412 C   0  0  0  0  0  0
   -2.5152    0.4417    0.3896 C   0  0  0  0  0  0
    2.1698   -0.0623   -2.7715 C   0  0  0  0  0  0
    2.8678    1.1436   -2.6313 C   0  0  0  0  0  0
    2.8195    1.8302   -1.4220 C   0  0  0  0  0  0
    3.4616    3.0011   -1.3100 F   0  0  0  0  0  0
    4.2876    0.6017    0.7966 H   0  0  0  0  0  0
    3.5287   -0.2446    2.1665 H   0  0  0  0  0  0
    4.7815    1.0011    2.4510 H   0  0  0  0  0  0
    3.5505    2.6336    3.6864 H   0  0  0  0  0  0
    2.2752    1.4002    3.8917 H   0  0  0  0  0  0
    1.8607    3.0135    3.2723 H   0  0  0  0  0  0
    0.8317   -0.2692    0.3545 H   0  0  0  0  0  0
   -0.1139   -1.4335   -2.5763 H   0  0  0  0  0  0
    1.7137   -3.6310   -0.4116 H   0  0  0  0  0  0
    0.6177   -4.8090    1.4831 H   0  0  0  0  0  0
   -1.7450   -4.2715    2.0741 H   0  0  0  0  0  0
   -3.8806   -1.0273   -0.5113 H   0  0  0  0  0  0
   -4.0992    0.2241   -2.5566 H   0  0  0  0  0  0
   -2.5664    1.0492   -2.3016 H   0  0  0  0  0  0
   -3.9997    2.6968   -1.3872 H   0  0  0  0  0  0
   -5.1951    1.5036   -0.8652 H   0  0  0  0  0  0
   -2.9659    2.5396    0.7151 H   0  0  0  0  0  0
   -4.2605    1.4353    1.1945 H   0  0  0  0  0  0
   -2.4912   -0.1003    1.3394 H   0  0  0  0  0  0
   -1.4959    0.7965    0.1991 H   0  0  0  0  0  0
    2.1898   -0.5800   -3.7287 H   0  0  0  0  0  0
    3.4277    1.5606   -3.4638 H   0  0  0  0  0  0
  1  2  1  0  0  0
  1 27  1  0  0  0
  1 28  1  0  0  0
  1 29  1  0  0  0
  2  3  1  0  0  0
  2  4  1  0  0  0
  3 30  1  0  0  0
  3 31  1  0  0  0
  3 32  1  0  0  0
  4  5  2  0  0  0
  4  6  1  0  0  0
  6  7  2  0  0  0
  6 25  1  0  0  0
  7  8  1  0  0  0
  7 33  1  0  0  0
  8  9  1  0  0  0
  8 23  2  0  0  0
  9 10  1  0  0  0
  9 34  1  0  0  0
 10 11  2  0  0  0
 10 16  1  0  0  0
 11 12  1  0  0  0
 11 35  1  0  0  0
 12 13  2  0  0  0
 12 36  1  0  0  0
 13 14  1  0  0  0
 13 37  1  0  0  0
 14 15  1  0  0  0
 14 16  2  0  0  0
 16 17  1  0  0  0
 17 18  1  0  0  0
 18 19  1  0  0  0
 18 22  1  0  0  0
 18 38  1  0  0  0
 19 20  1  0  0  0
 19 39  1  0  0  0
 19 40  1  0  0  0
 20 21  1  0  0  0
 20 41  1  0  0  0
 20 42  1  0  0  0
 21 22  1  0  0  0
 21 43  1  0  0  0
 21 44  1  0  0  0
 22 45  1  0  0  0
 22 46  1  0  0  0
 23 24  1  0  0  0
 23 47  1  0  0  0
 24 25  2  0  0  0
 24 48  1  0  0  0
 25 26  1  0  0  0
M  END
> <energy>
62.6143

> <i_ionizer_Ion_state_n>
0

> <i_ionizer_Tot_Q>
0

> <s_ionizer_Ion_centers>


> <s_ionizer_Ion_types>


> <s_ionizer_Ion_ctrs_in>


> <r_ionizer_Ionization_penalty>
0

> <r_ionizer_Ionization_penalty_charging>
0

> <r_ionizer_Ionization_penalty_neutral>
0

$$$$
ZINC001211863112
                    3D
 Schrodinger Suite 2019-4.
 48 50  0  0  1  0            999 V2000
    4.7419   -0.6113    0.5235 C   0  0  0  0  0  0
    3.7935   -1.6624    0.8676 N   0  0  0  0  0  0
    4.2029   -2.5876    1.9109 C   0  0  0  0  0  0
    2.4872   -1.7370    0.3975 C   0  0  0  0  0  0
    1.6610   -2.5637    0.7703 O   0  0  0  0  0  0
    2.0318   -0.7342   -0.5696 C   0  0  0  0  0  0
    1.3393    0.3891   -0.0991 C   0  0  0  0  0  0
    0.8648    1.3339   -1.0150 C   0  0  0  0  0  0
    0.3090    2.5632   -0.6031 N   0  0  0  0  0  0
   -0.8722    2.7663    0.1615 C   0  0  0  0  0  0
   -0.9564    3.9650    0.8971 C   0  0  0  0  0  0
   -2.0913    4.2823    1.6301 C   0  0  0  0  0  0
   -2.1206    5.4063    2.3556 F   0  0  0  0  0  0
   -3.1979    3.4499    1.6052 C   0  0  0  0  0  0
   -3.1661    2.2967    0.8204 C   0  0  0  0  0  0
   -2.0054    1.9249    0.1258 C   0  0  0  0  0  0
   -2.0454    0.8113   -0.6840 O   0  0  0  0  0  0
   -2.0643   -0.4329    0.0456 C   0  0  0  0  0  0
   -3.4997   -0.9011    0.3396 C   0  0  0  0  0  0
   -3.5540   -2.3648   -0.0671 C   0  0  0  0  0  0
   -2.6372   -2.4180   -1.2719 C   0  0  0  0  0  0
   -1.4731   -1.5270   -0.8585 C   0  0  0  0  0  0
    1.1133    1.1426   -2.3825 C   0  0  0  0  0  0
    1.7799    0.0056   -2.8477 C   0  0  0  0  0  0
    2.2428   -0.9312   -1.9316 C   0  0  0  0  0  0
    2.9139   -2.0016   -2.3756 F   0  0  0  0  0  0
    4.4835   -0.1062   -0.4061 H   0  0  0  0  0  0
    4.7621    0.1252    1.3325 H   0  0  0  0  0  0
    5.7382   -1.0481    0.4084 H   0  0  0  0  0  0
    4.3882   -2.0240    2.8312 H   0  0  0  0  0  0
    3.4430   -3.3464    2.1057 H   0  0  0  0  0  0
    5.1227   -3.0840    1.5870 H   0  0  0  0  0  0
    1.1718    0.5199    0.9652 H   0  0  0  0  0  0
    1.0594    3.1528   -0.2513 H   0  0  0  0  0  0
   -0.1334    4.6740    0.9075 H   0  0  0  0  0  0
   -4.0791    3.7128    2.1758 H   0  0  0  0  0  0
   -4.0725    1.7044    0.7391 H   0  0  0  0  0  0
   -1.4677   -0.3563    0.9672 H   0  0  0  0  0  0
   -4.2274   -0.3290   -0.2447 H   0  0  0  0  0  0
   -3.7581   -0.7825    1.3979 H   0  0  0  0  0  0
   -4.5686   -2.6920   -0.3025 H   0  0  0  0  0  0
   -3.1722   -3.0047    0.7342 H   0  0  0  0  0  0
   -3.1389   -2.0092   -2.1575 H   0  0  0  0  0  0
   -2.3207   -3.4383   -1.5068 H   0  0  0  0  0  0
   -0.9561   -1.1324   -1.7394 H   0  0  0  0  0  0
   -0.7667   -2.1364   -0.2833 H   0  0  0  0  0  0
    0.7663    1.8893   -3.0948 H   0  0  0  0  0  0
    1.9284   -0.1532   -3.9103 H   0  0  0  0  0  0
  1  2  1  0  0  0
  1 27  1  0  0  0
  1 28  1  0  0  0
  1 29  1  0  0  0
  2  3  1  0  0  0
  2  4  1  0  0  0
  3 30  1  0  0  0
  3 31  1  0  0  0
  3 32  1  0  0  0
  4  5  2  0  0  0
  4  6  1  0  0  0
  6  7  2  0  0  0
  6 25  1  0  0  0
  7  8  1  0  0  0
  7 33  1  0  0  0
  8  9  1  0  0  0
  8 23  2  0  0  0
  9 10  1  0  0  0
  9 34  1  0  0  0
 10 11  2  0  0  0
 10 16  1  0  0  0
 11 12  1  0  0  0
 11 35  1  0  0  0
 12 13  1  0  0  0
 12 14  2  0  0  0
 14 15  1  0  0  0
 14 36  1  0  0  0
 15 16  2  0  0  0
 15 37  1  0  0  0
 16 17  1  0  0  0
 17 18  1  0  0  0
 18 19  1  0  0  0
 18 22  1  0  0  0
 18 38  1  0  0  0
 19 20  1  0  0  0
 19 39  1  0  0  0
 19 40  1  0  0  0
 20 21  1  0  0  0
 20 41  1  0  0  0
 20 42  1  0  0  0
 21 22  1  0  0  0
 21 43  1  0  0  0
 21 44  1  0  0  0
 22 45  1  0  0  0
 22 46  1  0  0  0
 23 24  1  0  0  0
 23 47  1  0  0  0
 24 25  2  0  0  0
 24 48  1  0  0  0
 25 26  1  0  0  0
M  END
> <energy>
55.0436

> <i_ionizer_Ion_state_n>
0

> <i_ionizer_Tot_Q>
0

> <s_ionizer_Ion_centers>


> <s_ionizer_Ion_types>


> <s_ionizer_Ion_ctrs_in>


> <r_ionizer_Ionization_penalty>
0

> <r_ionizer_Ionization_penalty_charging>
0

> <r_ionizer_Ionization_penalty_neutral>
0

$$$$
ZINC001211863114
                    3D
 Schrodinger Suite 2019-4.
 37 38  0  0  1  0            999 V2000
    4.6968   -0.4571    1.4439 C   0  0  0  0  0  0
    3.5952   -0.2850    0.5103 N   0  0  0  0  0  0
    2.5884   -1.3374    0.4952 C   0  0  0  0  0  0
    3.4899    0.9163   -0.1904 C   0  0  0  0  0  0
    4.3241    1.8158   -0.1635 O   0  0  0  0  0  0
    2.2514    1.1717   -0.9375 C   0  0  0  0  0  0
    1.1163    1.5853   -0.2317 C   0  0  0  0  0  0
   -0.0932    1.7784   -0.9098 C   0  0  0  0  0  0
   -1.2809    2.0765   -0.1793 N   0  0  0  0  0  0
   -2.1553    1.0188    0.1918 C   0  0  0  0  0  0
   -1.9075    0.2539    1.3350 C   0  0  0  0  0  0
   -2.7100   -0.8485    1.6274 C   0  0  0  0  0  0
   -2.4264   -1.5570    2.7277 F   0  0  0  0  0  0
   -3.7626   -1.2195    0.8005 C   0  0  0  0  0  0
   -4.6109   -2.4117    1.0781 C   0  0  0  0  0  0
   -5.9274   -2.0972    1.2306 F   0  0  0  0  0  0
   -4.2722   -3.0973    2.2053 F   0  0  0  0  0  0
   -4.5563   -3.3281    0.0703 F   0  0  0  0  0  0
   -4.0026   -0.4477   -0.3318 C   0  0  0  0  0  0
   -5.0115   -0.7660   -1.1517 F   0  0  0  0  0  0
   -3.2073    0.6523   -0.6497 C   0  0  0  0  0  0
   -0.1456    1.5432   -2.2922 C   0  0  0  0  0  0
    1.0063    1.1688   -2.9971 C   0  0  0  0  0  0
    2.2050    0.9865   -2.3143 C   0  0  0  0  0  0
    3.2885    0.5906   -2.9958 F   0  0  0  0  0  0
    5.1855   -1.4154    1.2472 H   0  0  0  0  0  0
    5.4377    0.3418    1.3587 H   0  0  0  0  0  0
    4.2992   -0.4594    2.4639 H   0  0  0  0  0  0
    1.9285   -1.2075    1.3595 H   0  0  0  0  0  0
    3.0820   -2.3118    0.5543 H   0  0  0  0  0  0
    1.9917   -1.3130   -0.4189 H   0  0  0  0  0  0
    1.1835    1.7290    0.8427 H   0  0  0  0  0  0
   -0.9923    2.5555    0.6771 H   0  0  0  0  0  0
   -1.0804    0.4860    1.9980 H   0  0  0  0  0  0
   -3.4142    1.2198   -1.5524 H   0  0  0  0  0  0
   -1.0827    1.6675   -2.8314 H   0  0  0  0  0  0
    0.9691    1.0020   -4.0700 H   0  0  0  0  0  0
  1  2  1  0  0  0
  1 26  1  0  0  0
  1 27  1  0  0  0
  1 28  1  0  0  0
  2  3  1  0  0  0
  2  4  1  0  0  0
  3 29  1  0  0  0
  3 30  1  0  0  0
  3 31  1  0  0  0
  4  5  2  0  0  0
  4  6  1  0  0  0
  6  7  2  0  0  0
  6 24  1  0  0  0
  7  8  1  0  0  0
  7 32  1  0  0  0
  8  9  1  0  0  0
  8 22  2  0  0  0
  9 10  1  0  0  0
  9 33  1  0  0  0
 10 11  2  0  0  0
 10 21  1  0  0  0
 11 12  1  0  0  0
 11 34  1  0  0  0
 12 13  1  0  0  0
 12 14  2  0  0  0
 14 15  1  0  0  0
 14 19  1  0  0  0
 15 16  1  0  0  0
 15 17  1  0  0  0
 15 18  1  0  0  0
 19 20  1  0  0  0
 19 21  2  0  0  0
 21 35  1  0  0  0
 22 23  1  0  0  0
 22 36  1  0  0  0
 23 24  2  0  0  0
 23 37  1  0  0  0
 24 25  1  0  0  0
M  END
> <energy>
1.04787

> <i_ionizer_Ion_state_n>
0

> <i_ionizer_Tot_Q>
0

> <s_ionizer_Ion_centers>


> <s_ionizer_Ion_types>


> <s_ionizer_Ion_ctrs_in>


> <r_ionizer_Ionization_penalty>
0

> <r_ionizer_Ionization_penalty_charging>
0

> <r_ionizer_Ionization_penalty_neutral>
0

$$$$
ZINC001211863120
                    3D
 Schrodinger Suite 2019-4.
 34 35  0  0  1  0            999 V2000
    3.9678   -1.8098    0.8657 C   0  0  0  0  0  0
    2.8715   -0.8551    0.8602 N   0  0  0  0  0  0
    1.6268   -1.3011    1.4732 C   0  0  0  0  0  0
    3.0418    0.3700    0.2151 C   0  0  0  0  0  0
    4.1031    0.7591   -0.2638 O   0  0  0  0  0  0
    1.8602    1.2249    0.0317 C   0  0  0  0  0  0
    0.8475    0.8047   -0.8366 C   0  0  0  0  0  0
   -0.3112    1.5753   -0.9841 C   0  0  0  0  0  0
   -1.3882    1.0912   -1.7774 N   0  0  0  0  0  0
   -2.3381    0.1691   -1.2237 C   0  0  0  0  0  0
   -3.1790    0.5847   -0.1818 C   0  0  0  0  0  0
   -4.0815   -0.3040    0.4013 C   0  0  0  0  0  0
   -4.1473   -1.6243   -0.0391 C   0  0  0  0  0  0
   -3.3163   -2.0578   -1.0757 C   0  0  0  0  0  0
   -3.4627   -3.8767   -1.6004 Br  0  0  0  0  0  0
   -2.4170   -1.1666   -1.6776 C   0  0  0  0  0  0
   -1.3593   -1.6698   -2.9610 Cl  0  0  0  0  0  0
   -0.4383    2.7632   -0.2513 C   0  0  0  0  0  0
    0.5935    3.1963    0.5894 C   0  0  0  0  0  0
    1.7449    2.4247    0.7230 C   0  0  0  0  0  0
    2.7083    2.8410    1.5551 F   0  0  0  0  0  0
    3.6545   -2.7115    0.3298 H   0  0  0  0  0  0
    4.2044   -2.0692    1.9005 H   0  0  0  0  0  0
    4.8638   -1.4090    0.3884 H   0  0  0  0  0  0
    1.1261   -1.9894    0.7842 H   0  0  0  0  0  0
    1.8529   -1.8175    2.4104 H   0  0  0  0  0  0
    0.9607   -0.4661    1.7016 H   0  0  0  0  0  0
    0.9633   -0.1340   -1.3719 H   0  0  0  0  0  0
   -0.9830    0.6269   -2.5974 H   0  0  0  0  0  0
   -3.1436    1.6122    0.1706 H   0  0  0  0  0  0
   -4.7349    0.0375    1.2031 H   0  0  0  0  0  0
   -4.8514   -2.3047    0.4337 H   0  0  0  0  0  0
   -1.3421    3.3621   -0.3426 H   0  0  0  0  0  0
    0.5029    4.1237    1.1471 H   0  0  0  0  0  0
  1  2  1  0  0  0
  1 22  1  0  0  0
  1 23  1  0  0  0
  1 24  1  0  0  0
  2  3  1  0  0  0
  2  4  1  0  0  0
  3 25  1  0  0  0
  3 26  1  0  0  0
  3 27  1  0  0  0
  4  5  2  0  0  0
  4  6  1  0  0  0
  6  7  2  0  0  0
  6 20  1  0  0  0
  7  8  1  0  0  0
  7 28  1  0  0  0
  8  9  1  0  0  0
  8 18  2  0  0  0
  9 10  1  0  0  0
  9 29  1  0  0  0
 10 11  2  0  0  0
 10 16  1  0  0  0
 11 12  1  0  0  0
 11 30  1  0  0  0
 12 13  2  0  0  0
 12 31  1  0  0  0
 13 14  1  0  0  0
 13 32  1  0  0  0
 14 15  1  0  0  0
 14 16  2  0  0  0
 16 17  1  0  0  0
 18 19  1  0  0  0
 18 33  1  0  0  0
 19 20  2  0  0  0
 19 34  1  0  0  0
 20 21  1  0  0  0
M  END
> <energy>
54.0954

> <i_ionizer_Ion_state_n>
0

> <i_ionizer_Tot_Q>
0

> <s_ionizer_Ion_centers>


> <s_ionizer_Ion_types>


> <s_ionizer_Ion_ctrs_in>


> <r_ionizer_Ionization_penalty>
0

> <r_ionizer_Ionization_penalty_charging>
0

> <r_ionizer_Ionization_penalty_neutral>
0

$$$$
ZINC001211863134
                    3D
 Schrodinger Suite 2019-4.
 48 51  0  0  1  0            999 V2000
    3.3770    3.5069    1.3500 C   0  0  0  0  0  0
    3.3300    3.0761   -0.0049 O   0  0  0  0  0  0
    3.5144    1.7245   -0.1230 C   0  0  0  0  0  0
    4.5742    1.3034   -0.9224 C   0  0  0  0  0  0
    4.7705   -0.0566   -1.1894 C   0  0  0  0  0  0
    5.9282   -0.4914   -2.0348 C   0  0  0  0  0  0
    3.8900   -0.9946   -0.6385 C   0  0  0  0  0  0
    2.8021   -0.5790    0.1439 C   0  0  0  0  0  0
    1.8096   -1.5402    0.6006 C   0  0  0  0  0  0
    2.0331   -2.8571    0.7758 N   0  0  0  0  0  0
    0.7694   -3.3738    1.0619 O   0  0  0  0  0  0
   -0.0944   -2.3200    1.0220 C   0  0  0  0  0  0
   -1.5487   -2.6270    1.1225 C   0  0  0  0  0  0
   -2.4110   -1.5926    0.4097 C   0  0  0  0  0  0
   -2.4768   -1.5762   -0.9925 C   0  0  0  0  0  0
   -1.8193   -2.6171   -1.8535 C   0  0  0  0  0  0
   -3.1059   -0.6055   -1.6950 N   0  0  0  0  0  0
   -3.6574    0.4221   -1.0416 C   0  0  0  0  0  0
   -4.1958    1.4501   -1.8050 C   0  0  0  0  0  0
   -4.7675    2.5802   -1.2221 C   0  0  0  0  0  0
   -4.8259    2.6759    0.1584 C   0  0  0  0  0  0
   -4.2962    1.6479    0.9425 C   0  0  0  0  0  0
   -3.6890    0.5024    0.3650 C   0  0  0  0  0  0
   -3.0865   -0.5581    1.1062 C   0  0  0  0  0  0
   -3.0827   -0.5263    2.6155 C   0  0  0  0  0  0
    0.5031   -1.1699    0.8040 N   0  0  0  0  0  0
    2.6199    0.7916    0.3994 C   0  0  0  0  0  0
    3.4250    4.5979    1.3416 H   0  0  0  0  0  0
    4.2710    3.1332    1.8602 H   0  0  0  0  0  0
    2.4709    3.2208    1.8889 H   0  0  0  0  0  0
    5.2382    2.0520   -1.3476 H   0  0  0  0  0  0
    6.2285    0.3061   -2.7234 H   0  0  0  0  0  0
    6.7821   -0.7431   -1.3996 H   0  0  0  0  0  0
    5.6594   -1.3624   -2.6391 H   0  0  0  0  0  0
    4.0239   -2.0512   -0.8690 H   0  0  0  0  0  0
   -1.8023   -2.7287    2.1803 H   0  0  0  0  0  0
   -1.7479   -3.6169    0.7015 H   0  0  0  0  0  0
   -2.0221   -2.4219   -2.9147 H   0  0  0  0  0  0
   -0.7321   -2.6006   -1.7227 H   0  0  0  0  0  0
   -2.2097   -3.6149   -1.6264 H   0  0  0  0  0  0
   -4.1466    1.3808   -2.8890 H   0  0  0  0  0  0
   -5.1527    3.3814   -1.8472 H   0  0  0  0  0  0
   -5.2639    3.5506    0.6318 H   0  0  0  0  0  0
   -4.3524    1.7709    2.0185 H   0  0  0  0  0  0
   -3.9517   -0.0010    3.0215 H   0  0  0  0  0  0
   -2.1690   -0.0409    2.9710 H   0  0  0  0  0  0
   -3.1638   -1.5275    3.0434 H   0  0  0  0  0  0
    1.7506    1.1197    0.9656 H   0  0  0  0  0  0
  1  2  1  0  0  0
  1 28  1  0  0  0
  1 29  1  0  0  0
  1 30  1  0  0  0
  2  3  1  0  0  0
  3  4  2  0  0  0
  3 27  1  0  0  0
  4  5  1  0  0  0
  4 31  1  0  0  0
  5  6  1  0  0  0
  5  7  2  0  0  0
  6 32  1  0  0  0
  6 33  1  0  0  0
  6 34  1  0  0  0
  7  8  1  0  0  0
  7 35  1  0  0  0
  8  9  1  0  0  0
  8 27  2  0  0  0
  9 10  2  0  0  0
  9 26  1  0  0  0
 10 11  1  0  0  0
 11 12  1  0  0  0
 12 13  1  0  0  0
 12 26  2  0  0  0
 13 14  1  0  0  0
 13 36  1  0  0  0
 13 37  1  0  0  0
 14 15  1  0  0  0
 14 24  2  0  0  0
 15 16  1  0  0  0
 15 17  2  0  0  0
 16 38  1  0  0  0
 16 39  1  0  0  0
 16 40  1  0  0  0
 17 18  1  0  0  0
 18 19  1  0  0  0
 18 23  2  0  0  0
 19 20  2  0  0  0
 19 41  1  0  0  0
 20 21  1  0  0  0
 20 42  1  0  0  0
 21 22  2  0  0  0
 21 43  1  0  0  0
 22 23  1  0  0  0
 22 44  1  0  0  0
 23 24  1  0  0  0
 24 25  1  0  0  0
 25 45  1  0  0  0
 25 46  1  0  0  0
 25 47  1  0  0  0
 27 48  1  0  0  0
M  END
> <energy>
95.339

> <i_ionizer_Ion_state_n>
0

> <i_ionizer_Tot_Q>
0

> <s_ionizer_Ion_centers>


> <s_ionizer_Ion_types>


> <s_ionizer_Ion_ctrs_in>


> <r_ionizer_Ionization_penalty>
0.00741239

> <r_ionizer_Ionization_penalty_charging>
0

> <r_ionizer_Ionization_penalty_neutral>
0.00741239

$$$$
ZINC001211863146
                    3D
 Schrodinger Suite 2019-4.
 49 52  0  0  1  0            999 V2000
   -4.8875    2.5337    0.2408 C   0  0  0  0  0  0
   -4.4423    1.0966    0.1157 C   0  0  0  0  0  0
   -5.4663    0.2254    0.0135 N   0  0  0  0  0  0
   -5.2195   -1.0830   -0.0417 C   0  0  0  0  0  0
   -6.3235   -1.9237   -0.0971 C   0  0  0  0  0  0
   -6.2032   -3.3119   -0.1388 C   0  0  0  0  0  0
   -4.9396   -3.8731   -0.1382 C   0  0  0  0  0  0
   -3.8136   -3.0421   -0.0940 C   0  0  0  0  0  0
   -3.9164   -1.6211   -0.0173 C   0  0  0  0  0  0
   -2.8219   -0.6868    0.1008 C   0  0  0  0  0  0
   -1.4012   -1.1948    0.1967 C   0  0  0  0  0  0
   -3.0838    0.7182    0.1289 C   0  0  0  0  0  0
   -2.0616    1.8449    0.2960 C   0  0  0  0  0  0
   -0.6365    1.6606   -0.0822 C   0  0  0  0  0  0
    0.4303    1.8390    0.6630 N   0  0  0  0  0  0
    1.4537    1.5046   -0.1918 C   0  0  0  0  0  0
    2.8423    1.4890    0.2459 C   0  0  0  0  0  0
    3.3089    2.4367    1.1662 C   0  0  0  0  0  0
    4.6418    2.4067    1.5802 C   0  0  0  0  0  0
    5.4994    1.4166    1.1013 C   0  0  0  0  0  0
    5.0506    0.4401    0.1950 C   0  0  0  0  0  0
    5.9582   -0.5472   -0.2391 N   0  0  0  0  0  0
    6.7552   -0.0665   -1.3781 C   0  0  0  0  0  0
    5.3679   -1.8801   -0.4292 C   0  0  0  0  0  0
    3.7217    0.5085   -0.2400 C   0  0  0  0  0  0
    1.0492    1.1787   -1.4292 N   0  0  0  0  0  0
   -0.3433    1.3280   -1.3743 O   0  0  0  0  0  0
   -5.9801    2.5827    0.3314 H   0  0  0  0  0  0
   -4.4764    2.9861    1.1475 H   0  0  0  0  0  0
   -4.5937    3.1110   -0.6417 H   0  0  0  0  0  0
   -7.3205   -1.4799   -0.1089 H   0  0  0  0  0  0
   -7.0913   -3.9339   -0.1819 H   0  0  0  0  0  0
   -4.8125   -4.9499   -0.1700 H   0  0  0  0  0  0
   -2.8447   -3.5368   -0.1123 H   0  0  0  0  0  0
   -0.8690   -0.9790   -0.7332 H   0  0  0  0  0  0
   -1.3053   -2.2721    0.3559 H   0  0  0  0  0  0
   -0.8899   -0.7338    1.0474 H   0  0  0  0  0  0
   -2.3842    2.7053   -0.3034 H   0  0  0  0  0  0
   -2.0894    2.1556    1.3525 H   0  0  0  0  0  0
    2.6483    3.2120    1.5534 H   0  0  0  0  0  0
    5.0116    3.1380    2.2970 H   0  0  0  0  0  0
    6.5325    1.3853    1.4407 H   0  0  0  0  0  0
    7.5583   -0.7771   -1.5970 H   0  0  0  0  0  0
    6.1340    0.0329   -2.2744 H   0  0  0  0  0  0
    7.2213    0.8992   -1.1639 H   0  0  0  0  0  0
    4.6903   -1.9182   -1.2902 H   0  0  0  0  0  0
    4.8311   -2.2010    0.4691 H   0  0  0  0  0  0
    6.1632   -2.6128   -0.6071 H   0  0  0  0  0  0
    3.3474   -0.2103   -0.9638 H   0  0  0  0  0  0
  1  2  1  0  0  0
  1 28  1  0  0  0
  1 29  1  0  0  0
  1 30  1  0  0  0
  2  3  2  0  0  0
  2 12  1  0  0  0
  3  4  1  0  0  0
  4  5  2  0  0  0
  4  9  1  0  0  0
  5  6  1  0  0  0
  5 31  1  0  0  0
  6  7  2  0  0  0
  6 32  1  0  0  0
  7  8  1  0  0  0
  7 33  1  0  0  0
  8  9  2  0  0  0
  8 34  1  0  0  0
  9 10  1  0  0  0
 10 11  1  0  0  0
 10 12  2  0  0  0
 11 35  1  0  0  0
 11 36  1  0  0  0
 11 37  1  0  0  0
 12 13  1  0  0  0
 13 14  1  0  0  0
 13 38  1  0  0  0
 13 39  1  0  0  0
 14 15  2  0  0  0
 14 27  1  0  0  0
 15 16  1  0  0  0
 16 17  1  0  0  0
 16 26  2  0  0  0
 17 18  2  0  0  0
 17 25  1  0  0  0
 18 19  1  0  0  0
 18 40  1  0  0  0
 19 20  2  0  0  0
 19 41  1  0  0  0
 20 21  1  0  0  0
 20 42  1  0  0  0
 21 22  1  0  0  0
 21 25  2  0  0  0
 22 23  1  0  0  0
 22 24  1  0  0  0
 23 43  1  0  0  0
 23 44  1  0  0  0
 23 45  1  0  0  0
 24 46  1  0  0  0
 24 47  1  0  0  0
 24 48  1  0  0  0
 25 49  1  0  0  0
 26 27  1  0  0  0
M  END
> <energy>
101.23

> <i_ionizer_Ion_state_n>
0

> <i_ionizer_Tot_Q>
0

> <s_ionizer_Ion_centers>


> <s_ionizer_Ion_types>


> <s_ionizer_Ion_ctrs_in>


> <r_ionizer_Ionization_penalty>
0.00296205

> <r_ionizer_Ionization_penalty_charging>
0

> <r_ionizer_Ionization_penalty_neutral>
0.00296205

$$$$
ZINC001211863205
                    3D
 Schrodinger Suite 2019-4.
 45 48  0  0  1  0            999 V2000
   -5.1736    1.9201    1.1164 C   0  0  0  0  0  0
   -4.6220    0.9201    1.9743 O   0  0  0  0  0  0
   -4.4230   -0.2491    1.2875 C   0  0  0  0  0  0
   -5.4233   -1.2226    1.3964 C   0  0  0  0  0  0
   -5.2791   -2.4477    0.7498 C   0  0  0  0  0  0
   -4.1359   -2.6920    0.0013 C   0  0  0  0  0  0
   -3.9947   -3.8694   -0.6222 F   0  0  0  0  0  0
   -3.1296   -1.7384   -0.1019 C   0  0  0  0  0  0
   -3.2486   -0.5063    0.5630 C   0  0  0  0  0  0
   -2.1517    0.4437    0.4612 C   0  0  0  0  0  0
   -1.7601    1.2835    1.4338 N   0  0  0  0  0  0
   -0.6546    1.9342    0.8861 O   0  0  0  0  0  0
   -0.4928    1.4296   -0.3692 C   0  0  0  0  0  0
    0.6647    1.9214   -1.1636 C   0  0  0  0  0  0
    1.9626    1.2222   -0.8001 C   0  0  0  0  0  0
    2.9980    1.9195   -0.1617 C   0  0  0  0  0  0
    2.9403    3.3956    0.1151 C   0  0  0  0  0  0
    4.1380    1.3251    0.2612 N   0  0  0  0  0  0
    4.2953    0.0083    0.0916 C   0  0  0  0  0  0
    5.4508   -0.5755    0.5901 C   0  0  0  0  0  0
    5.6965   -1.9442    0.4756 C   0  0  0  0  0  0
    4.7704   -2.7553   -0.1619 C   0  0  0  0  0  0
    3.6040   -2.1868   -0.6726 C   0  0  0  0  0  0
    3.3413   -0.7964   -0.5602 C   0  0  0  0  0  0
    2.1663   -0.1589   -1.0525 C   0  0  0  0  0  0
    1.1414   -0.9883   -1.7927 C   0  0  0  0  0  0
   -1.3921    0.5274   -0.6860 N   0  0  0  0  0  0
   -5.2322    2.8540    1.6847 H   0  0  0  0  0  0
   -4.5450    2.0998    0.2371 H   0  0  0  0  0  0
   -6.1880    1.6455    0.8049 H   0  0  0  0  0  0
   -6.3097   -1.0219    1.9915 H   0  0  0  0  0  0
   -6.0397   -3.2175    0.8296 H   0  0  0  0  0  0
   -2.2434   -1.9769   -0.6839 H   0  0  0  0  0  0
    0.7329    3.0064   -1.0353 H   0  0  0  0  0  0
    0.4686    1.7819   -2.2326 H   0  0  0  0  0  0
    2.1081    3.6270    0.7878 H   0  0  0  0  0  0
    2.8309    3.9567   -0.8184 H   0  0  0  0  0  0
    3.8659    3.7402    0.5924 H   0  0  0  0  0  0
    6.1784    0.0556    1.0947 H   0  0  0  0  0  0
    6.6035   -2.3678    0.8916 H   0  0  0  0  0  0
    4.9431   -3.8231   -0.2574 H   0  0  0  0  0  0
    2.8899   -2.8527   -1.1524 H   0  0  0  0  0  0
    0.4488   -0.3865   -2.3846 H   0  0  0  0  0  0
    1.6342   -1.6433   -2.5212 H   0  0  0  0  0  0
    0.5656   -1.5973   -1.0874 H   0  0  0  0  0  0
  1  2  1  0  0  0
  1 28  1  0  0  0
  1 29  1  0  0  0
  1 30  1  0  0  0
  2  3  1  0  0  0
  3  4  2  0  0  0
  3  9  1  0  0  0
  4  5  1  0  0  0
  4 31  1  0  0  0
  5  6  2  0  0  0
  5 32  1  0  0  0
  6  7  1  0  0  0
  6  8  1  0  0  0
  8  9  2  0  0  0
  8 33  1  0  0  0
  9 10  1  0  0  0
 10 11  2  0  0  0
 10 27  1  0  0  0
 11 12  1  0  0  0
 12 13  1  0  0  0
 13 14  1  0  0  0
 13 27  2  0  0  0
 14 15  1  0  0  0
 14 34  1  0  0  0
 14 35  1  0  0  0
 15 16  1  0  0  0
 15 25  2  0  0  0
 16 17  1  0  0  0
 16 18  2  0  0  0
 17 36  1  0  0  0
 17 37  1  0  0  0
 17 38  1  0  0  0
 18 19  1  0  0  0
 19 20  1  0  0  0
 19 24  2  0  0  0
 20 21  2  0  0  0
 20 39  1  0  0  0
 21 22  1  0  0  0
 21 40  1  0  0  0
 22 23  2  0  0  0
 22 41  1  0  0  0
 23 24  1  0  0  0
 23 42  1  0  0  0
 24 25  1  0  0  0
 25 26  1  0  0  0
 26 43  1  0  0  0
 26 44  1  0  0  0
 26 45  1  0  0  0
M  END
> <energy>
91.7285

> <i_ionizer_Ion_state_n>
0

> <i_ionizer_Tot_Q>
0

> <s_ionizer_Ion_centers>


> <s_ionizer_Ion_types>


> <s_ionizer_Ion_ctrs_in>


> <r_ionizer_Ionization_penalty>
0.00741239

> <r_ionizer_Ionization_penalty_charging>
0

> <r_ionizer_Ionization_penalty_neutral>
0.00741239

$$$$
ZINC001211863219
                    3D
 Schrodinger Suite 2019-4.
 36 39  0  0  1  0            999 V2000
    5.3103    2.8381   -0.8338 C   0  0  0  0  0  0
    4.2970    1.7923   -0.4847 C   0  0  0  0  0  0
    3.8334    0.8837   -1.4419 C   0  0  0  0  0  0
    2.8606   -0.0575   -1.1034 C   0  0  0  0  0  0
    2.4518   -0.9175   -2.0474 F   0  0  0  0  0  0
    2.3347   -0.1132    0.1871 C   0  0  0  0  0  0
    1.2793   -1.0471    0.5051 C   0  0  0  0  0  0
    1.3120   -1.8864    1.5525 N   0  0  0  0  0  0
    0.0494   -2.4768    1.5385 O   0  0  0  0  0  0
   -0.6317   -1.9097    0.5022 C   0  0  0  0  0  0
   -2.0756   -2.2483    0.3818 C   0  0  2  0  0  0
   -2.4373   -2.6953   -1.0502 C   0  0  0  0  0  0
   -3.2679   -1.5647   -1.6072 C   0  0  0  0  0  0
   -3.6832   -1.4640   -2.7473 O   0  0  0  0  0  0
   -3.5659   -0.6074   -0.5513 C   0  0  0  0  0  0
   -4.3257    0.5454   -0.6235 C   0  0  0  0  0  0
   -4.4493    1.2975    0.5422 C   0  0  0  0  0  0
   -5.3480    2.7668    0.5192 Cl  0  0  0  0  0  0
   -3.8381    0.8841    1.7371 C   0  0  0  0  0  0
   -3.0737   -0.2888    1.7790 C   0  0  0  0  0  0
   -2.9344   -1.0298    0.6135 C   0  0  0  0  0  0
    0.0853   -1.0468   -0.1792 N   0  0  0  0  0  0
    2.8031    0.7834    1.1548 C   0  0  0  0  0  0
    3.7688    1.7261    0.8094 C   0  0  0  0  0  0
    4.1843    2.5933    1.7431 F   0  0  0  0  0  0
    5.7189    2.6794   -1.8371 H   0  0  0  0  0  0
    6.1465    2.8130   -0.1287 H   0  0  0  0  0  0
    4.8547    3.8327   -0.8101 H   0  0  0  0  0  0
    4.2133    0.8974   -2.4606 H   0  0  0  0  0  0
   -2.3460   -3.0366    1.0940 H   0  0  0  0  0  0
   -1.5613   -2.8761   -1.6832 H   0  0  0  0  0  0
   -3.0619   -3.5964   -1.0208 H   0  0  0  0  0  0
   -4.7933    0.8504   -1.5533 H   0  0  0  0  0  0
   -3.9363    1.4897    2.6363 H   0  0  0  0  0  0
   -2.5829   -0.5864    2.7002 H   0  0  0  0  0  0
    2.4089    0.7756    2.1679 H   0  0  0  0  0  0
  1  2  1  0  0  0
  1 26  1  0  0  0
  1 27  1  0  0  0
  1 28  1  0  0  0
  2  3  2  0  0  0
  2 24  1  0  0  0
  3  4  1  0  0  0
  3 29  1  0  0  0
  4  5  1  0  0  0
  4  6  2  0  0  0
  6  7  1  0  0  0
  6 23  1  0  0  0
  7  8  2  0  0  0
  7 22  1  0  0  0
  8  9  1  0  0  0
  9 10  1  0  0  0
 10 11  1  0  0  0
 10 22  2  0  0  0
 11 12  1  0  0  0
 11 21  1  0  0  0
 11 30  1  0  0  0
 12 13  1  0  0  0
 12 31  1  0  0  0
 12 32  1  0  0  0
 13 14  2  0  0  0
 13 15  1  0  0  0
 15 16  2  0  0  0
 15 21  1  0  0  0
 16 17  1  0  0  0
 16 33  1  0  0  0
 17 18  1  0  0  0
 17 19  2  0  0  0
 19 20  1  0  0  0
 19 34  1  0  0  0
 20 21  2  0  0  0
 20 35  1  0  0  0
 23 24  2  0  0  0
 23 36  1  0  0  0
 24 25  1  0  0  0
M  END
> <energy>
48.9747

> <i_ionizer_Ion_state_n>
0

> <i_ionizer_Tot_Q>
0

> <s_ionizer_Ion_centers>


> <s_ionizer_Ion_types>


> <s_ionizer_Ion_ctrs_in>


> <r_ionizer_Ionization_penalty>
0

> <r_ionizer_Ionization_penalty_charging>
0

> <r_ionizer_Ionization_penalty_neutral>
0

$$$$
ZINC001211863220
                    3D
 Schrodinger Suite 2019-4.
 36 39  0  0  1  0            999 V2000
    5.9620    0.9864    1.2190 C   0  0  0  0  0  0
    4.6464    0.3709    0.8512 C   0  0  0  0  0  0
    3.7766    0.9957   -0.0486 C   0  0  0  0  0  0
    2.5592    0.3945   -0.3801 C   0  0  0  0  0  0
    1.7643    1.0248   -1.2575 F   0  0  0  0  0  0
    2.1882   -0.8387    0.1646 C   0  0  0  0  0  0
    0.9005   -1.4324   -0.1404 C   0  0  0  0  0  0
    0.6928   -2.7558   -0.2542 N   0  0  0  0  0  0
   -0.6815   -2.8612   -0.4603 O   0  0  0  0  0  0
   -1.1756   -1.5903   -0.4339 C   0  0  0  0  0  0
   -2.6557   -1.4456   -0.5511 C   0  0  1  0  0  0
   -3.3178   -1.6128    0.8362 C   0  0  0  0  0  0
   -3.6824   -0.2092    1.2551 C   0  0  0  0  0  0
   -4.0593    0.1421    2.3571 O   0  0  0  0  0  0
   -3.5906    0.6731    0.1001 C   0  0  0  0  0  0
   -3.9551    2.0032    0.0042 C   0  0  0  0  0  0
   -3.7956    2.6128   -1.2369 C   0  0  0  0  0  0
   -4.1968    4.2759   -1.4272 Cl  0  0  0  0  0  0
   -3.3059    1.8922   -2.3396 C   0  0  0  0  0  0
   -2.9378    0.5459   -2.2090 C   0  0  0  0  0  0
   -3.0749   -0.0576   -0.9672 C   0  0  0  0  0  0
   -0.2474   -0.6817   -0.2428 N   0  0  0  0  0  0
    3.0735   -1.4793    1.0420 C   0  0  0  0  0  0
    4.2822   -0.8722    1.3752 C   0  0  0  0  0  0
    5.1052   -1.5011    2.2254 F   0  0  0  0  0  0
    6.7776    0.4681    0.7060 H   0  0  0  0  0  0
    6.1253    0.9268    2.2998 H   0  0  0  0  0  0
    5.9996    2.0453    0.9440 H   0  0  0  0  0  0
    4.0271    1.9514   -0.5008 H   0  0  0  0  0  0
   -3.0554   -2.1924   -1.2482 H   0  0  0  0  0  0
   -2.6614   -2.0790    1.5783 H   0  0  0  0  0  0
   -4.2470   -2.1879    0.7518 H   0  0  0  0  0  0
   -4.3445    2.5379    0.8641 H   0  0  0  0  0  0
   -3.1903    2.3841   -3.3028 H   0  0  0  0  0  0
   -2.5334    0.0059   -3.0612 H   0  0  0  0  0  0
    2.8279   -2.4398    1.4878 H   0  0  0  0  0  0
  1  2  1  0  0  0
  1 26  1  0  0  0
  1 27  1  0  0  0
  1 28  1  0  0  0
  2  3  2  0  0  0
  2 24  1  0  0  0
  3  4  1  0  0  0
  3 29  1  0  0  0
  4  5  1  0  0  0
  4  6  2  0  0  0
  6  7  1  0  0  0
  6 23  1  0  0  0
  7  8  2  0  0  0
  7 22  1  0  0  0
  8  9  1  0  0  0
  9 10  1  0  0  0
 10 11  1  0  0  0
 10 22  2  0  0  0
 11 12  1  0  0  0
 11 21  1  0  0  0
 11 30  1  0  0  0
 12 13  1  0  0  0
 12 31  1  0  0  0
 12 32  1  0  0  0
 13 14  2  0  0  0
 13 15  1  0  0  0
 15 16  2  0  0  0
 15 21  1  0  0  0
 16 17  1  0  0  0
 16 33  1  0  0  0
 17 18  1  0  0  0
 17 19  2  0  0  0
 19 20  1  0  0  0
 19 34  1  0  0  0
 20 21  2  0  0  0
 20 35  1  0  0  0
 23 24  2  0  0  0
 23 36  1  0  0  0
 24 25  1  0  0  0
M  END
> <energy>
48.022

> <i_ionizer_Ion_state_n>
0

> <i_ionizer_Tot_Q>
0

> <s_ionizer_Ion_centers>


> <s_ionizer_Ion_types>


> <s_ionizer_Ion_ctrs_in>


> <r_ionizer_Ionization_penalty>
0

> <r_ionizer_Ionization_penalty_charging>
0

> <r_ionizer_Ionization_penalty_neutral>
0

$$$$
ZINC001211863239
                    3D
 Schrodinger Suite 2019-4.
 41 44  0  0  1  0            999 V2000
   -1.8781   -3.5525    0.7984 C   0  0  0  0  0  0
   -2.3258   -2.1390    0.5546 C   0  0  0  0  0  0
   -3.6631   -2.0171    0.4427 N   0  0  0  0  0  0
   -4.2094   -0.8046    0.3349 C   0  0  0  0  0  0
   -5.5935   -0.7396    0.3452 C   0  0  0  0  0  0
   -6.2756    0.4715    0.2514 C   0  0  0  0  0  0
   -5.5548    1.6477    0.1360 C   0  0  0  0  0  0
   -4.1607    1.6044    0.1274 C   0  0  0  0  0  0
   -3.4485    0.3763    0.2345 C   0  0  0  0  0  0
   -2.0229    0.2431    0.2861 C   0  0  0  0  0  0
   -1.1454    1.4665    0.1822 C   0  0  0  0  0  0
   -1.4540   -1.0387    0.5250 C   0  0  0  0  0  0
   -0.0121   -1.2351    0.9696 C   0  0  0  0  0  0
    1.0893   -0.7591    0.0970 C   0  0  0  0  0  0
    2.1872   -0.1372    0.4597 N   0  0  0  0  0  0
    2.8892   -0.0457   -0.7126 C   0  0  0  0  0  0
    4.2167    0.5536   -0.7649 C   0  0  0  0  0  0
    4.8564    0.7842   -1.9911 C   0  0  0  0  0  0
    6.1246    1.3618   -2.0230 C   0  0  0  0  0  0
    6.7104    1.5741   -3.2087 F   0  0  0  0  0  0
    6.7741    1.7143   -0.8484 C   0  0  0  0  0  0
    7.9885    2.2780   -0.8917 F   0  0  0  0  0  0
    6.1496    1.4862    0.3717 C   0  0  0  0  0  0
    6.7648    1.8243    1.5135 F   0  0  0  0  0  0
    4.8826    0.9072    0.4247 C   0  0  0  0  0  0
    2.2486   -0.5741   -1.7693 N   0  0  0  0  0  0
    1.0553   -1.0588   -1.2304 O   0  0  0  0  0  0
   -1.4515   -3.6428    1.8019 H   0  0  0  0  0  0
   -2.7206   -4.2519    0.7447 H   0  0  0  0  0  0
   -1.1444   -3.8610    0.0468 H   0  0  0  0  0  0
   -6.1530   -1.6660    0.4454 H   0  0  0  0  0  0
   -7.3609    0.4813    0.2586 H   0  0  0  0  0  0
   -6.0731    2.6000    0.0535 H   0  0  0  0  0  0
   -3.6404    2.5543    0.0533 H   0  0  0  0  0  0
   -0.3032    1.2821   -0.4838 H   0  0  0  0  0  0
   -0.7902    1.7638    1.1710 H   0  0  0  0  0  0
   -1.6508    2.3220   -0.2737 H   0  0  0  0  0  0
    0.0821   -0.7463    1.9474 H   0  0  0  0  0  0
    0.2067   -2.2911    1.1531 H   0  0  0  0  0  0
    4.3780    0.5225   -2.9318 H   0  0  0  0  0  0
    4.4278    0.7414    1.3991 H   0  0  0  0  0  0
  1  2  1  0  0  0
  1 28  1  0  0  0
  1 29  1  0  0  0
  1 30  1  0  0  0
  2  3  2  0  0  0
  2 12  1  0  0  0
  3  4  1  0  0  0
  4  5  2  0  0  0
  4  9  1  0  0  0
  5  6  1  0  0  0
  5 31  1  0  0  0
  6  7  2  0  0  0
  6 32  1  0  0  0
  7  8  1  0  0  0
  7 33  1  0  0  0
  8  9  2  0  0  0
  8 34  1  0  0  0
  9 10  1  0  0  0
 10 11  1  0  0  0
 10 12  2  0  0  0
 11 35  1  0  0  0
 11 36  1  0  0  0
 11 37  1  0  0  0
 12 13  1  0  0  0
 13 14  1  0  0  0
 13 38  1  0  0  0
 13 39  1  0  0  0
 14 15  2  0  0  0
 14 27  1  0  0  0
 15 16  1  0  0  0
 16 17  1  0  0  0
 16 26  2  0  0  0
 17 18  2  0  0  0
 17 25  1  0  0  0
 18 19  1  0  0  0
 18 40  1  0  0  0
 19 20  1  0  0  0
 19 21  2  0  0  0
 21 22  1  0  0  0
 21 23  1  0  0  0
 23 24  1  0  0  0
 23 25  2  0  0  0
 25 41  1  0  0  0
 26 27  1  0  0  0
M  END
> <energy>
83.4374

> <i_ionizer_Ion_state_n>
0

> <i_ionizer_Tot_Q>
0

> <s_ionizer_Ion_centers>


> <s_ionizer_Ion_types>


> <s_ionizer_Ion_ctrs_in>


> <r_ionizer_Ionization_penalty>
0

> <r_ionizer_Ionization_penalty_charging>
0

> <r_ionizer_Ionization_penalty_neutral>
0

$$$$
ZINC001211863274
                    3D
 Schrodinger Suite 2019-4.
 41 44  0  0  1  0            999 V2000
   -1.4717    1.2932   -2.9747 C   0  0  0  0  0  0
   -1.7590    1.3345   -1.5003 C   0  0  0  0  0  0
   -1.6436    2.5583   -0.9412 N   0  0  0  0  0  0
   -1.7657    2.6830    0.3851 C   0  0  0  0  0  0
   -1.5359    3.9404    0.9267 C   0  0  0  0  0  0
   -1.6075    4.1765    2.2996 C   0  0  0  0  0  0
   -1.9094    3.1312    3.1567 C   0  0  0  0  0  0
   -2.1396    1.8580    2.6336 C   0  0  0  0  0  0
   -2.0803    1.6040    1.2386 C   0  0  0  0  0  0
   -2.2798    0.3284    0.6364 C   0  0  0  0  0  0
   -2.6007   -0.8835    1.4822 C   0  0  0  0  0  0
   -2.0690    0.1835   -0.7600 C   0  0  0  0  0  0
   -2.0004   -1.1870   -1.4156 C   0  0  0  0  0  0
   -0.6648   -1.8122   -1.2187 C   0  0  0  0  0  0
    0.5014   -1.2444   -1.0124 N   0  0  0  0  0  0
    1.3412   -2.3192   -0.8540 C   0  0  0  0  0  0
    2.7444   -2.1248   -0.5374 C   0  0  0  0  0  0
    3.1515   -0.9353    0.0917 C   0  0  0  0  0  0
    4.4941   -0.7360    0.4008 C   0  0  0  0  0  0
    4.8676    0.3967    1.0121 F   0  0  0  0  0  0
    5.4423   -1.6988    0.0734 C   0  0  0  0  0  0
    6.7344   -1.4975    0.3640 F   0  0  0  0  0  0
    5.0605   -2.8770   -0.5539 C   0  0  0  0  0  0
    3.7144   -3.0845   -0.8524 C   0  0  0  0  0  0
    3.3820   -4.2208   -1.4810 F   0  0  0  0  0  0
    0.7262   -3.5072   -0.9655 N   0  0  0  0  0  0
   -0.6059   -3.1733   -1.2119 O   0  0  0  0  0  0
   -1.2137    2.2886   -3.3528 H   0  0  0  0  0  0
   -2.3492    0.9488   -3.5296 H   0  0  0  0  0  0
   -0.6201    0.6371   -3.1783 H   0  0  0  0  0  0
   -1.2741    4.7578    0.2590 H   0  0  0  0  0  0
   -1.4136    5.1713    2.6897 H   0  0  0  0  0  0
   -1.9531    3.2960    4.2299 H   0  0  0  0  0  0
   -2.3469    1.0612    3.3409 H   0  0  0  0  0  0
   -1.6813   -1.4252    1.7269 H   0  0  0  0  0  0
   -3.1150   -0.6209    2.4097 H   0  0  0  0  0  0
   -3.2935   -1.5583    0.9714 H   0  0  0  0  0  0
   -2.7922   -1.8371   -1.0313 H   0  0  0  0  0  0
   -2.2080   -1.1215   -2.4890 H   0  0  0  0  0  0
    2.4332   -0.1597    0.3479 H   0  0  0  0  0  0
    5.8009   -3.6244   -0.8163 H   0  0  0  0  0  0
  1  2  1  0  0  0
  1 28  1  0  0  0
  1 29  1  0  0  0
  1 30  1  0  0  0
  2  3  2  0  0  0
  2 12  1  0  0  0
  3  4  1  0  0  0
  4  5  2  0  0  0
  4  9  1  0  0  0
  5  6  1  0  0  0
  5 31  1  0  0  0
  6  7  2  0  0  0
  6 32  1  0  0  0
  7  8  1  0  0  0
  7 33  1  0  0  0
  8  9  2  0  0  0
  8 34  1  0  0  0
  9 10  1  0  0  0
 10 11  1  0  0  0
 10 12  2  0  0  0
 11 35  1  0  0  0
 11 36  1  0  0  0
 11 37  1  0  0  0
 12 13  1  0  0  0
 13 14  1  0  0  0
 13 38  1  0  0  0
 13 39  1  0  0  0
 14 15  2  0  0  0
 14 27  1  0  0  0
 15 16  1  0  0  0
 16 17  1  0  0  0
 16 26  2  0  0  0
 17 18  2  0  0  0
 17 24  1  0  0  0
 18 19  1  0  0  0
 18 40  1  0  0  0
 19 20  1  0  0  0
 19 21  2  0  0  0
 21 22  1  0  0  0
 21 23  1  0  0  0
 23 24  2  0  0  0
 23 41  1  0  0  0
 24 25  1  0  0  0
 26 27  1  0  0  0
M  END
> <energy>
75.8313

> <i_ionizer_Ion_state_n>
0

> <i_ionizer_Tot_Q>
0

> <s_ionizer_Ion_centers>


> <s_ionizer_Ion_types>


> <s_ionizer_Ion_ctrs_in>


> <r_ionizer_Ionization_penalty>
0

> <r_ionizer_Ionization_penalty_charging>
0

> <r_ionizer_Ionization_penalty_neutral>
0

$$$$
ZINC001211863276
                    3D
 Schrodinger Suite 2019-4.
 43 46  0  0  1  0            999 V2000
    5.9105    0.5173   -0.7322 C   0  0  0  0  0  0
    4.7094    1.2555   -0.9608 O   0  0  0  0  0  0
    3.6213    0.5504   -0.5071 C   0  0  0  0  0  0
    2.9915   -0.3854   -1.3444 C   0  0  0  0  0  0
    3.4672   -0.6720   -2.7392 C   0  0  0  0  0  0
    1.8703   -1.0773   -0.8590 C   0  0  0  0  0  0
    1.3318   -0.7731    0.3960 C   0  0  0  0  0  0
    0.0787   -1.3676    0.8144 C   0  0  0  0  0  0
   -0.1888   -2.6810    0.7780 N   0  0  0  0  0  0
   -1.5408   -2.7474    1.1175 O   0  0  0  0  0  0
   -1.9548   -1.4613    1.3034 C   0  0  0  0  0  0
   -3.4194   -1.2387    1.4432 C   0  0  1  0  0  0
   -3.7393   -0.2286    2.5672 C   0  0  0  0  0  0
   -4.1660    1.0268    1.8453 C   0  0  0  0  0  0
   -4.3984    2.1092    2.3530 O   0  0  0  0  0  0
   -4.3205    0.7464    0.4256 C   0  0  0  0  0  0
   -4.7186    1.6005   -0.5891 C   0  0  0  0  0  0
   -4.7691    1.0731   -1.8769 C   0  0  0  0  0  0
   -5.2287    2.0826   -3.1943 Cl  0  0  0  0  0  0
   -4.4428   -0.2715   -2.1249 C   0  0  0  0  0  0
   -4.0369   -1.1086   -1.0805 C   0  0  0  0  0  0
   -3.9666   -0.5798    0.2018 C   0  0  0  0  0  0
   -0.9886   -0.5815    1.1836 N   0  0  0  0  0  0
    1.9370    0.2065    1.1907 C   0  0  0  0  0  0
    3.0954    0.8649    0.7561 C   0  0  0  0  0  0
    3.6714    1.9572    1.6110 C   0  0  0  0  0  0
    6.7572    1.1924   -0.8999 H   0  0  0  0  0  0
    5.9965   -0.3108   -1.4439 H   0  0  0  0  0  0
    5.9756    0.1428    0.2972 H   0  0  0  0  0  0
    3.9054    0.2141   -3.2077 H   0  0  0  0  0  0
    4.2040   -1.4783   -2.7256 H   0  0  0  0  0  0
    2.6289   -0.9734   -3.3757 H   0  0  0  0  0  0
    1.3803   -1.8212   -1.4877 H   0  0  0  0  0  0
   -3.9362   -2.1868    1.6358 H   0  0  0  0  0  0
   -2.8853   -0.0287    3.2199 H   0  0  0  0  0  0
   -4.5839   -0.5819    3.1668 H   0  0  0  0  0  0
   -4.9611    2.6399   -0.3822 H   0  0  0  0  0  0
   -4.4742   -0.6609   -3.1402 H   0  0  0  0  0  0
   -3.7502   -2.1350   -1.2865 H   0  0  0  0  0  0
    1.4923    0.4654    2.1493 H   0  0  0  0  0  0
    4.7634    1.9629    1.5648 H   0  0  0  0  0  0
    3.3942    1.8175    2.6612 H   0  0  0  0  0  0
    3.2877    2.9255    1.2760 H   0  0  0  0  0  0
  1  2  1  0  0  0
  1 27  1  0  0  0
  1 28  1  0  0  0
  1 29  1  0  0  0
  2  3  1  0  0  0
  3  4  2  0  0  0
  3 25  1  0  0  0
  4  5  1  0  0  0
  4  6  1  0  0  0
  5 30  1  0  0  0
  5 31  1  0  0  0
  5 32  1  0  0  0
  6  7  2  0  0  0
  6 33  1  0  0  0
  7  8  1  0  0  0
  7 24  1  0  0  0
  8  9  2  0  0  0
  8 23  1  0  0  0
  9 10  1  0  0  0
 10 11  1  0  0  0
 11 12  1  0  0  0
 11 23  2  0  0  0
 12 13  1  0  0  0
 12 22  1  0  0  0
 12 34  1  0  0  0
 13 14  1  0  0  0
 13 35  1  0  0  0
 13 36  1  0  0  0
 14 15  2  0  0  0
 14 16  1  0  0  0
 16 17  2  0  0  0
 16 22  1  0  0  0
 17 18  1  0  0  0
 17 37  1  0  0  0
 18 19  1  0  0  0
 18 20  2  0  0  0
 20 21  1  0  0  0
 20 38  1  0  0  0
 21 22  2  0  0  0
 21 39  1  0  0  0
 24 25  2  0  0  0
 24 40  1  0  0  0
 25 26  1  0  0  0
 26 41  1  0  0  0
 26 42  1  0  0  0
 26 43  1  0  0  0
M  END
> <energy>
75.07

> <i_ionizer_Ion_state_n>
0

> <i_ionizer_Tot_Q>
0

> <s_ionizer_Ion_centers>


> <s_ionizer_Ion_types>


> <s_ionizer_Ion_ctrs_in>


> <r_ionizer_Ionization_penalty>
0

> <r_ionizer_Ionization_penalty_charging>
0

> <r_ionizer_Ionization_penalty_neutral>
0

$$$$
ZINC001211863279
                    3D
 Schrodinger Suite 2019-4.
 43 46  0  0  1  0            999 V2000
    2.1321   -1.6876   -4.5518 C   0  0  0  0  0  0
    3.1904   -1.1420   -3.7621 O   0  0  0  0  0  0
    2.6644   -0.3796   -2.7460 C   0  0  0  0  0  0
    2.3219   -0.9909   -1.5332 C   0  0  0  0  0  0
    2.4909   -2.4612   -1.3001 C   0  0  0  0  0  0
    1.6927   -0.2134   -0.5586 C   0  0  0  0  0  0
    1.4015    1.1465   -0.7801 C   0  0  0  0  0  0
    0.4819    1.7982    0.1430 C   0  0  0  0  0  0
    0.0997    3.0839    0.0948 N   0  0  0  0  0  0
   -1.0321    3.1197    0.9205 O   0  0  0  0  0  0
   -1.2023    1.8552    1.4057 C   0  0  0  0  0  0
   -2.4505    1.5705    2.1709 C   0  0  2  0  0  0
   -2.4423    2.2421    3.5633 C   0  0  0  0  0  0
   -2.5691    1.1080    4.5488 C   0  0  0  0  0  0
   -2.5889    1.2111    5.7658 O   0  0  0  0  0  0
   -2.6961   -0.1559    3.8425 C   0  0  0  0  0  0
   -2.8322   -1.4279    4.3735 C   0  0  0  0  0  0
   -2.9212   -2.4856    3.4729 C   0  0  0  0  0  0
   -3.0430   -4.0999    4.0631 Cl  0  0  0  0  0  0
   -2.9032   -2.2610    2.0876 C   0  0  0  0  0  0
   -2.7720   -0.9604    1.5799 C   0  0  0  0  0  0
   -2.6529    0.1002    2.4758 C   0  0  0  0  0  0
   -0.2538    1.0371    1.0267 N   0  0  0  0  0  0
    1.8555    1.7620   -1.9570 C   0  0  0  0  0  0
    2.5054    1.0028   -2.9469 C   0  0  0  0  0  0
    2.9151    1.6263   -4.2491 C   0  0  0  0  0  0
    1.3501   -0.9474   -4.7591 H   0  0  0  0  0  0
    2.5619   -2.0082   -5.5038 H   0  0  0  0  0  0
    1.7046   -2.5640   -4.0566 H   0  0  0  0  0  0
    2.6888   -2.6671   -0.2424 H   0  0  0  0  0  0
    1.5773   -2.9887   -1.6005 H   0  0  0  0  0  0
    3.3359   -2.8643   -1.8663 H   0  0  0  0  0  0
    1.3686   -0.6887    0.3677 H   0  0  0  0  0  0
   -3.3171    1.9267    1.5986 H   0  0  0  0  0  0
   -1.5284    2.8110    3.7699 H   0  0  0  0  0  0
   -3.3158    2.8948    3.6757 H   0  0  0  0  0  0
   -2.8602   -1.5815    5.4471 H   0  0  0  0  0  0
   -2.9681   -3.1007    1.3977 H   0  0  0  0  0  0
   -2.7425   -0.7990    0.5044 H   0  0  0  0  0  0
    1.6692    2.8231   -2.1270 H   0  0  0  0  0  0
    2.0985    1.5489   -4.9747 H   0  0  0  0  0  0
    3.7990    1.1294   -4.6645 H   0  0  0  0  0  0
    3.1862    2.6774   -4.1164 H   0  0  0  0  0  0
  1  2  1  0  0  0
  1 27  1  0  0  0
  1 28  1  0  0  0
  1 29  1  0  0  0
  2  3  1  0  0  0
  3  4  2  0  0  0
  3 25  1  0  0  0
  4  5  1  0  0  0
  4  6  1  0  0  0
  5 30  1  0  0  0
  5 31  1  0  0  0
  5 32  1  0  0  0
  6  7  2  0  0  0
  6 33  1  0  0  0
  7  8  1  0  0  0
  7 24  1  0  0  0
  8  9  2  0  0  0
  8 23  1  0  0  0
  9 10  1  0  0  0
 10 11  1  0  0  0
 11 12  1  0  0  0
 11 23  2  0  0  0
 12 13  1  0  0  0
 12 22  1  0  0  0
 12 34  1  0  0  0
 13 14  1  0  0  0
 13 35  1  0  0  0
 13 36  1  0  0  0
 14 15  2  0  0  0
 14 16  1  0  0  0
 16 17  2  0  0  0
 16 22  1  0  0  0
 17 18  1  0  0  0
 17 37  1  0  0  0
 18 19  1  0  0  0
 18 20  2  0  0  0
 20 21  1  0  0  0
 20 38  1  0  0  0
 21 22  2  0  0  0
 21 39  1  0  0  0
 24 25  2  0  0  0
 24 40  1  0  0  0
 25 26  1  0  0  0
 26 41  1  0  0  0
 26 42  1  0  0  0
 26 43  1  0  0  0
M  END
> <energy>
76.4197

> <i_ionizer_Ion_state_n>
0

> <i_ionizer_Tot_Q>
0

> <s_ionizer_Ion_centers>


> <s_ionizer_Ion_types>


> <s_ionizer_Ion_ctrs_in>


> <r_ionizer_Ionization_penalty>
0

> <r_ionizer_Ionization_penalty_charging>
0

> <r_ionizer_Ionization_penalty_neutral>
0

$$$$
ZINC001211863322
                    3D
 Schrodinger Suite 2019-4.
 37 38  0  0  1  0            999 V2000
    4.1932   -0.5849   -1.0375 C   0  0  0  0  0  0
    3.6695   -1.2653    0.1389 N   0  0  0  0  0  0
    4.0779   -2.6571    0.3068 C   0  0  0  0  0  0
    2.5705   -0.8146    0.8792 C   0  0  0  0  0  0
    1.9853   -1.5142    1.7061 O   0  0  0  0  0  0
    1.9853    0.5128    0.6104 C   0  0  0  0  0  0
    0.7030    0.5630    0.0410 C   0  0  0  0  0  0
    0.0984    1.8015   -0.2210 C   0  0  0  0  0  0
   -1.1154    1.8739   -0.9580 N   0  0  0  0  0  0
   -2.2323    1.0553   -0.6463 C   0  0  0  0  0  0
   -2.6983    0.1108   -1.5721 C   0  0  0  0  0  0
   -3.7324   -0.7663   -1.2252 C   0  0  0  0  0  0
   -4.3208   -0.7122    0.0517 C   0  0  0  0  0  0
   -5.3444   -1.7224    0.4770 C   0  0  0  0  0  0
   -4.7771   -2.7942    1.0982 F   0  0  0  0  0  0
   -6.0410   -2.2417   -0.5773 F   0  0  0  0  0  0
   -6.2898   -1.2400    1.3255 F   0  0  0  0  0  0
   -3.8714    0.2440    0.9555 C   0  0  0  0  0  0
   -4.4149    0.3184    2.1766 F   0  0  0  0  0  0
   -2.8448    1.1184    0.6174 C   0  0  0  0  0  0
   -2.4369    2.0248    1.5181 F   0  0  0  0  0  0
    0.7873    2.9820    0.0841 C   0  0  0  0  0  0
    2.0511    2.9316    0.6821 C   0  0  0  0  0  0
    2.6450    1.6947    0.9400 C   0  0  0  0  0  0
    3.8786    1.6672    1.4665 F   0  0  0  0  0  0
    5.2708   -0.7531   -1.0997 H   0  0  0  0  0  0
    3.7044   -0.9996   -1.9256 H   0  0  0  0  0  0
    4.0186    0.4892   -1.0063 H   0  0  0  0  0  0
    3.7846   -3.0444    1.2862 H   0  0  0  0  0  0
    3.6064   -3.2682   -0.4677 H   0  0  0  0  0  0
    5.1649   -2.7429    0.2186 H   0  0  0  0  0  0
    0.1915   -0.3649   -0.1995 H   0  0  0  0  0  0
   -0.8831    1.8046   -1.9458 H   0  0  0  0  0  0
   -2.2272    0.0178   -2.5515 H   0  0  0  0  0  0
   -4.0646   -1.5136   -1.9477 H   0  0  0  0  0  0
    0.3276    3.9439   -0.1303 H   0  0  0  0  0  0
    2.5807    3.8461    0.9313 H   0  0  0  0  0  0
  1  2  1  0  0  0
  1 26  1  0  0  0
  1 27  1  0  0  0
  1 28  1  0  0  0
  2  3  1  0  0  0
  2  4  1  0  0  0
  3 29  1  0  0  0
  3 30  1  0  0  0
  3 31  1  0  0  0
  4  5  2  0  0  0
  4  6  1  0  0  0
  6  7  2  0  0  0
  6 24  1  0  0  0
  7  8  1  0  0  0
  7 32  1  0  0  0
  8  9  1  0  0  0
  8 22  2  0  0  0
  9 10  1  0  0  0
  9 33  1  0  0  0
 10 11  2  0  0  0
 10 20  1  0  0  0
 11 12  1  0  0  0
 11 34  1  0  0  0
 12 13  2  0  0  0
 12 35  1  0  0  0
 13 14  1  0  0  0
 13 18  1  0  0  0
 14 15  1  0  0  0
 14 16  1  0  0  0
 14 17  1  0  0  0
 18 19  1  0  0  0
 18 20  2  0  0  0
 20 21  1  0  0  0
 22 23  1  0  0  0
 22 36  1  0  0  0
 23 24  2  0  0  0
 23 37  1  0  0  0
 24 25  1  0  0  0
M  END
> <energy>
55.6726

> <i_ionizer_Ion_state_n>
0

> <i_ionizer_Tot_Q>
0

> <s_ionizer_Ion_centers>


> <s_ionizer_Ion_types>


> <s_ionizer_Ion_ctrs_in>


> <r_ionizer_Ionization_penalty>
0

> <r_ionizer_Ionization_penalty_charging>
0

> <r_ionizer_Ionization_penalty_neutral>
0

$$$$
ZINC001211863330
                    3D
 Schrodinger Suite 2019-4.
 50 51  0  0  1  0            999 V2000
    2.4387   -2.1212   -1.3290 C   0  0  0  0  0  0
    3.4531   -1.1540   -1.7207 N   0  0  0  0  0  0
    3.9694   -1.2698   -3.0748 C   0  0  0  0  0  0
    3.7016    0.0277   -1.0202 C   0  0  0  0  0  0
    4.4322    0.9283   -1.4211 O   0  0  0  0  0  0
    3.0002    0.2510    0.2500 C   0  0  0  0  0  0
    1.8587    1.0555    0.2524 C   0  0  0  0  0  0
    1.1929    1.3272    1.4533 C   0  0  0  0  0  0
    0.0556    2.1719    1.5163 N   0  0  0  0  0  0
   -0.7368    2.5436    0.3947 C   0  0  0  0  0  0
   -0.8309    3.8969    0.0375 C   0  0  0  0  0  0
   -0.2116    4.8202    0.7908 F   0  0  0  0  0  0
   -1.5305    4.3117   -1.0927 C   0  0  0  0  0  0
   -2.1412    3.3625   -1.9115 C   0  0  0  0  0  0
   -2.0773    2.0095   -1.5730 C   0  0  0  0  0  0
   -1.3990    1.6071   -0.4166 C   0  0  0  0  0  0
   -1.3764    0.2616   -0.1218 O   0  0  0  0  0  0
   -2.5256   -0.0804    0.6744 C   0  0  0  0  0  0
   -2.7167   -1.6170    0.7405 C   0  0  0  0  0  0
   -4.0186   -1.9352    1.4982 C   0  0  0  0  0  0
   -2.8075   -2.2064   -0.6767 C   0  0  0  0  0  0
   -1.5374   -2.2709    1.4811 C   0  0  0  0  0  0
    1.7065    0.8048    2.6490 C   0  0  0  0  0  0
    2.8461   -0.0053    2.6413 C   0  0  0  0  0  0
    3.4929   -0.2737    1.4376 C   0  0  0  0  0  0
    4.5841   -1.0529    1.4495 F   0  0  0  0  0  0
    1.4789   -1.7988   -1.7415 H   0  0  0  0  0  0
    2.3549   -2.1983   -0.2431 H   0  0  0  0  0  0
    2.7003   -3.1073   -1.7244 H   0  0  0  0  0  0
    4.7657   -0.5485   -3.2801 H   0  0  0  0  0  0
    4.3627   -2.2809   -3.2242 H   0  0  0  0  0  0
    3.1494   -1.0925   -3.7783 H   0  0  0  0  0  0
    1.5163    1.4845   -0.6848 H   0  0  0  0  0  0
    0.3095    3.0146    2.0377 H   0  0  0  0  0  0
   -1.5829    5.3681   -1.3342 H   0  0  0  0  0  0
   -2.6703    3.6726   -2.8079 H   0  0  0  0  0  0
   -2.5592    1.2657   -2.2025 H   0  0  0  0  0  0
   -3.4306    0.3708    0.2452 H   0  0  0  0  0  0
   -2.3922    0.3203    1.6869 H   0  0  0  0  0  0
   -4.8873   -1.4754    1.0137 H   0  0  0  0  0  0
   -3.9792   -1.5686    2.5299 H   0  0  0  0  0  0
   -4.2000   -3.0151    1.5380 H   0  0  0  0  0  0
   -1.8642   -2.0940   -1.2195 H   0  0  0  0  0  0
   -3.5937   -1.7148   -1.2593 H   0  0  0  0  0  0
   -3.0419   -3.2769   -0.6443 H   0  0  0  0  0  0
   -1.6504   -3.3595    1.5191 H   0  0  0  0  0  0
   -0.5833   -2.0542    0.9911 H   0  0  0  0  0  0
   -1.4722   -1.9121    2.5140 H   0  0  0  0  0  0
    1.2123    1.0240    3.5931 H   0  0  0  0  0  0
    3.2352   -0.4165    3.5670 H   0  0  0  0  0  0
  1  2  1  0  0  0
  1 27  1  0  0  0
  1 28  1  0  0  0
  1 29  1  0  0  0
  2  3  1  0  0  0
  2  4  1  0  0  0
  3 30  1  0  0  0
  3 31  1  0  0  0
  3 32  1  0  0  0
  4  5  2  0  0  0
  4  6  1  0  0  0
  6  7  2  0  0  0
  6 25  1  0  0  0
  7  8  1  0  0  0
  7 33  1  0  0  0
  8  9  1  0  0  0
  8 23  2  0  0  0
  9 10  1  0  0  0
  9 34  1  0  0  0
 10 11  2  0  0  0
 10 16  1  0  0  0
 11 12  1  0  0  0
 11 13  1  0  0  0
 13 14  2  0  0  0
 13 35  1  0  0  0
 14 15  1  0  0  0
 14 36  1  0  0  0
 15 16  2  0  0  0
 15 37  1  0  0  0
 16 17  1  0  0  0
 17 18  1  0  0  0
 18 19  1  0  0  0
 18 38  1  0  0  0
 18 39  1  0  0  0
 19 20  1  0  0  0
 19 21  1  0  0  0
 19 22  1  0  0  0
 20 40  1  0  0  0
 20 41  1  0  0  0
 20 42  1  0  0  0
 21 43  1  0  0  0
 21 44  1  0  0  0
 21 45  1  0  0  0
 22 46  1  0  0  0
 22 47  1  0  0  0
 22 48  1  0  0  0
 23 24  1  0  0  0
 23 49  1  0  0  0
 24 25  2  0  0  0
 24 50  1  0  0  0
 25 26  1  0  0  0
M  END
> <energy>
70.956

> <i_ionizer_Ion_state_n>
0

> <i_ionizer_Tot_Q>
0

> <s_ionizer_Ion_centers>


> <s_ionizer_Ion_types>


> <s_ionizer_Ion_ctrs_in>


> <r_ionizer_Ionization_penalty>
0

> <r_ionizer_Ionization_penalty_charging>
0

> <r_ionizer_Ionization_penalty_neutral>
0

$$$$
ZINC001211863355
                    3D
 Schrodinger Suite 2019-4.
 39 41  0  0  1  0            999 V2000
    2.8876   -3.2170   -0.9800 C   0  0  0  0  0  0
    2.5201   -1.9618   -0.3443 N   0  0  0  0  0  0
    1.4462   -2.0243    0.6394 C   0  0  0  0  0  0
    3.1554   -0.7868   -0.7470 C   0  0  0  0  0  0
    4.1198   -0.7442   -1.5071 O   0  0  0  0  0  0
    2.5742    0.4922   -0.3122 C   0  0  0  0  0  0
    1.3050    0.8417   -0.7859 C   0  0  0  0  0  0
    0.6890    2.0167   -0.3407 C   0  0  0  0  0  0
   -0.6645    2.2897   -0.6953 N   0  0  0  0  0  0
   -1.7176    1.6729    0.0656 C   0  0  0  0  0  0
   -1.9841    2.1805    1.3471 C   0  0  0  0  0  0
   -2.8936    1.5483    2.1856 C   0  0  0  0  0  0
   -3.5205    0.3762    1.7661 C   0  0  0  0  0  0
   -3.2815   -0.1702    0.4829 C   0  0  0  0  0  0
   -3.8710   -1.3625    0.0088 C   0  0  0  0  0  0
   -4.9181   -2.3377    0.9724 Cl  0  0  0  0  0  0
   -3.6773   -1.8978   -1.2176 N   0  0  0  0  0  0
   -2.8648   -1.2136   -2.0424 C   0  0  0  0  0  0
   -2.2185   -0.0450   -1.6805 C   0  0  0  0  0  0
   -1.4304    0.5630   -2.5823 F   0  0  0  0  0  0
   -2.3919    0.5013   -0.3930 C   0  0  0  0  0  0
    1.3675    2.8403    0.5680 C   0  0  0  0  0  0
    2.6562    2.5099    1.0003 C   0  0  0  0  0  0
    3.2574    1.3342    0.5571 C   0  0  0  0  0  0
    4.4763    1.0164    1.0153 F   0  0  0  0  0  0
    2.0147   -3.6135   -1.5058 H   0  0  0  0  0  0
    3.7022   -3.0965   -1.6993 H   0  0  0  0  0  0
    3.1951   -3.9306   -0.2111 H   0  0  0  0  0  0
    1.5912   -2.9034    1.2740 H   0  0  0  0  0  0
    1.4312   -1.1433    1.2824 H   0  0  0  0  0  0
    0.4912   -2.1051    0.1124 H   0  0  0  0  0  0
    0.7958    0.1729   -1.4740 H   0  0  0  0  0  0
   -0.7859    1.9998   -1.6704 H   0  0  0  0  0  0
   -1.4774    3.0786    1.6931 H   0  0  0  0  0  0
   -3.1051    1.9586    3.1706 H   0  0  0  0  0  0
   -4.2168   -0.1060    2.4518 H   0  0  0  0  0  0
   -2.7345   -1.6321   -3.0362 H   0  0  0  0  0  0
    0.8909    3.7457    0.9354 H   0  0  0  0  0  0
    3.1868    3.1526    1.6970 H   0  0  0  0  0  0
  1  2  1  0  0  0
  1 26  1  0  0  0
  1 27  1  0  0  0
  1 28  1  0  0  0
  2  3  1  0  0  0
  2  4  1  0  0  0
  3 29  1  0  0  0
  3 30  1  0  0  0
  3 31  1  0  0  0
  4  5  2  0  0  0
  4  6  1  0  0  0
  6  7  2  0  0  0
  6 24  1  0  0  0
  7  8  1  0  0  0
  7 32  1  0  0  0
  8  9  1  0  0  0
  8 22  2  0  0  0
  9 10  1  0  0  0
  9 33  1  0  0  0
 10 11  2  0  0  0
 10 21  1  0  0  0
 11 12  1  0  0  0
 11 34  1  0  0  0
 12 13  2  0  0  0
 12 35  1  0  0  0
 13 14  1  0  0  0
 13 36  1  0  0  0
 14 15  2  0  0  0
 14 21  1  0  0  0
 15 16  1  0  0  0
 15 17  1  0  0  0
 17 18  2  0  0  0
 18 19  1  0  0  0
 18 37  1  0  0  0
 19 20  1  0  0  0
 19 21  2  0  0  0
 22 23  1  0  0  0
 22 38  1  0  0  0
 23 24  2  0  0  0
 23 39  1  0  0  0
 24 25  1  0  0  0
M  END
> <energy>
71.3682

> <i_ionizer_Ion_state_n>
0

> <i_ionizer_Tot_Q>
0

> <s_ionizer_Ion_centers>


> <s_ionizer_Ion_types>


> <s_ionizer_Ion_ctrs_in>


> <r_ionizer_Ionization_penalty>
0.00741239

> <r_ionizer_Ionization_penalty_charging>
0

> <r_ionizer_Ionization_penalty_neutral>
0.00741239

$$$$
ZINC001211863374
                    3D
 Schrodinger Suite 2019-4.
 40 41  0  0  1  0            999 V2000
    5.8403    0.9685   -0.2993 C   0  0  0  0  0  0
    4.7211    0.9838    0.7321 C   0  0  0  0  0  0
    3.5462    0.1057    0.3771 C   0  0  0  0  0  0
    2.4975    0.6122   -0.3997 C   0  0  0  0  0  0
    1.3709   -0.1689   -0.6850 C   0  0  0  0  0  0
    1.2811   -1.4911   -0.2363 C   0  0  0  0  0  0
    0.1615   -2.2877   -0.5550 N   0  0  0  0  0  0
   -1.2103   -1.9778   -0.5357 C   0  0  0  0  0  0
   -2.0676   -2.7104   -1.3707 C   0  0  0  0  0  0
   -3.4283   -2.4072   -1.4609 C   0  0  0  0  0  0
   -3.9544   -1.3706   -0.6973 C   0  0  0  0  0  0
   -5.2531   -1.0698   -0.8341 F   0  0  0  0  0  0
   -3.1235   -0.6416    0.1446 C   0  0  0  0  0  0
   -3.6516    0.4786    0.9398 C   0  0  0  0  0  0
   -4.3005    0.2125    1.9517 O   0  0  0  0  0  0
   -3.3100    1.7732    0.5485 N   0  0  0  0  0  0
   -2.5615    2.0979   -0.6575 C   0  0  0  0  0  0
   -3.5842    2.8870    1.4459 C   0  0  0  0  0  0
   -1.7549   -0.9390    0.2280 C   0  0  0  0  0  0
    2.3325   -1.9929    0.5488 C   0  0  0  0  0  0
    2.2290   -3.7389    1.3053 Br  0  0  0  0  0  0
    3.4572   -1.2101    0.8466 C   0  0  0  0  0  0
    5.4698    1.1244   -1.3204 H   0  0  0  0  0  0
    6.3902    0.0197   -0.2724 H   0  0  0  0  0  0
    6.5622    1.7650   -0.0771 H   0  0  0  0  0  0
    5.1272    0.6812    1.7048 H   0  0  0  0  0  0
    4.3667    2.0137    0.8650 H   0  0  0  0  0  0
    2.5541    1.6237   -0.7977 H   0  0  0  0  0  0
    0.5788    0.2586   -1.2943 H   0  0  0  0  0  0
    0.3531   -3.2864   -0.4885 H   0  0  0  0  0  0
   -1.6536   -3.4973   -1.9949 H   0  0  0  0  0  0
   -4.0641   -2.9621   -2.1418 H   0  0  0  0  0  0
   -2.5353    1.2713   -1.3662 H   0  0  0  0  0  0
   -1.5378    2.3539   -0.3737 H   0  0  0  0  0  0
   -3.0364    2.9499   -1.1475 H   0  0  0  0  0  0
   -2.6332    3.3122    1.7779 H   0  0  0  0  0  0
   -4.1573    2.5873    2.3245 H   0  0  0  0  0  0
   -4.1431    3.6514    0.9017 H   0  0  0  0  0  0
   -1.1329   -0.3569    0.9023 H   0  0  0  0  0  0
    4.2541   -1.6230    1.4615 H   0  0  0  0  0  0
  1  2  1  0  0  0
  1 23  1  0  0  0
  1 24  1  0  0  0
  1 25  1  0  0  0
  2  3  1  0  0  0
  2 26  1  0  0  0
  2 27  1  0  0  0
  3  4  2  0  0  0
  3 22  1  0  0  0
  4  5  1  0  0  0
  4 28  1  0  0  0
  5  6  2  0  0  0
  5 29  1  0  0  0
  6  7  1  0  0  0
  6 20  1  0  0  0
  7  8  1  0  0  0
  7 30  1  0  0  0
  8  9  2  0  0  0
  8 19  1  0  0  0
  9 10  1  0  0  0
  9 31  1  0  0  0
 10 11  2  0  0  0
 10 32  1  0  0  0
 11 12  1  0  0  0
 11 13  1  0  0  0
 13 14  1  0  0  0
 13 19  2  0  0  0
 14 15  2  0  0  0
 14 16  1  0  0  0
 16 17  1  0  0  0
 16 18  1  0  0  0
 17 33  1  0  0  0
 17 34  1  0  0  0
 17 35  1  0  0  0
 18 36  1  0  0  0
 18 37  1  0  0  0
 18 38  1  0  0  0
 19 39  1  0  0  0
 20 21  1  0  0  0
 20 22  2  0  0  0
 22 40  1  0  0  0
M  END
> <energy>
43.4939

> <i_ionizer_Ion_state_n>
0

> <i_ionizer_Tot_Q>
0

> <s_ionizer_Ion_centers>


> <s_ionizer_Ion_types>


> <s_ionizer_Ion_ctrs_in>


> <r_ionizer_Ionization_penalty>
0

> <r_ionizer_Ionization_penalty_charging>
0

> <r_ionizer_Ionization_penalty_neutral>
0

$$$$
ZINC001211863375
                    3D
 Schrodinger Suite 2019-4.
 38 42  0  0  1  0            999 V2000
    4.8333   -1.0576   -0.4404 C   0  0  0  0  0  0
    4.4688   -1.1797    0.9890 C   0  0  0  0  0  0
    5.2875   -1.7943    1.8543 N   0  0  0  0  0  0
    4.6384   -1.7534    3.0797 O   0  0  0  0  0  0
    3.4419   -1.1238    2.9386 C   0  0  0  0  0  0
    2.5013   -0.9032    3.9395 C   0  0  0  0  0  0
    1.3182   -0.2577    3.5465 C   0  0  0  0  0  0
    1.1033    0.1524    2.2173 C   0  0  0  0  0  0
   -0.1580    0.7641    1.8099 C   0  0  0  0  0  0
   -1.1501    1.1078    2.6483 N   0  0  0  0  0  0
   -2.1599    1.5632    1.8018 O   0  0  0  0  0  0
   -1.6812    1.4452    0.5317 C   0  0  0  0  0  0
   -2.6097    1.7822   -0.5828 C   0  0  1  0  0  0
   -1.9159    2.6598   -1.6458 C   0  0  0  0  0  0
   -1.5982    1.7077   -2.7733 C   0  0  0  0  0  0
   -0.8787    1.9316   -3.7281 O   0  0  0  0  0  0
   -2.3573    0.4769   -2.5914 C   0  0  0  0  0  0
   -2.4780   -0.6022   -3.4485 C   0  0  0  0  0  0
   -3.2906   -1.6524   -3.0280 C   0  0  0  0  0  0
   -3.4845   -3.0351   -4.0357 Cl  0  0  0  0  0  0
   -3.9507   -1.6074   -1.7868 C   0  0  0  0  0  0
   -3.8060   -0.5017   -0.9405 C   0  0  0  0  0  0
   -2.9969    0.5454   -1.3558 C   0  0  0  0  0  0
   -0.4538    0.9845    0.4815 N   0  0  0  0  0  0
    2.1014   -0.0714    1.2459 C   0  0  0  0  0  0
    3.2820   -0.7334    1.6218 C   0  0  0  0  0  0
    4.1424   -1.6426   -1.0564 H   0  0  0  0  0  0
    5.8496   -1.4160   -0.6340 H   0  0  0  0  0  0
    4.7759   -0.0116   -0.7586 H   0  0  0  0  0  0
    2.6697   -1.2336    4.9567 H   0  0  0  0  0  0
    0.5493   -0.0912    4.3012 H   0  0  0  0  0  0
   -3.5001    2.2972   -0.2032 H   0  0  0  0  0  0
   -2.6095    3.4143   -2.0374 H   0  0  0  0  0  0
   -1.0091    3.1516   -1.2827 H   0  0  0  0  0  0
   -1.9562   -0.6248   -4.4004 H   0  0  0  0  0  0
   -4.5772   -2.4421   -1.4766 H   0  0  0  0  0  0
   -4.2966   -0.4869    0.0281 H   0  0  0  0  0  0
    1.9551    0.2382    0.2143 H   0  0  0  0  0  0
  1  2  1  0  0  0
  1 27  1  0  0  0
  1 28  1  0  0  0
  1 29  1  0  0  0
  2  3  2  0  0  0
  2 26  1  0  0  0
  3  4  1  0  0  0
  4  5  1  0  0  0
  5  6  1  0  0  0
  5 26  2  0  0  0
  6  7  2  0  0  0
  6 30  1  0  0  0
  7  8  1  0  0  0
  7 31  1  0  0  0
  8  9  1  0  0  0
  8 25  2  0  0  0
  9 10  2  0  0  0
  9 24  1  0  0  0
 10 11  1  0  0  0
 11 12  1  0  0  0
 12 13  1  0  0  0
 12 24  2  0  0  0
 13 14  1  0  0  0
 13 23  1  0  0  0
 13 32  1  0  0  0
 14 15  1  0  0  0
 14 33  1  0  0  0
 14 34  1  0  0  0
 15 16  2  0  0  0
 15 17  1  0  0  0
 17 18  2  0  0  0
 17 23  1  0  0  0
 18 19  1  0  0  0
 18 35  1  0  0  0
 19 20  1  0  0  0
 19 21  2  0  0  0
 21 22  1  0  0  0
 21 36  1  0  0  0
 22 23  2  0  0  0
 22 37  1  0  0  0
 25 26  1  0  0  0
 25 38  1  0  0  0
M  END
> <energy>
61.6757

> <i_ionizer_Ion_state_n>
0

> <i_ionizer_Tot_Q>
0

> <s_ionizer_Ion_centers>


> <s_ionizer_Ion_types>


> <s_ionizer_Ion_ctrs_in>


> <r_ionizer_Ionization_penalty>
0

> <r_ionizer_Ionization_penalty_charging>
0

> <r_ionizer_Ionization_penalty_neutral>
0

$$$$
ZINC001211863379
                    3D
 Schrodinger Suite 2019-4.
 38 42  0  0  1  0            999 V2000
    5.1374   -2.3429   -2.2352 C   0  0  0  0  0  0
    5.3767   -1.1418   -1.4048 C   0  0  0  0  0  0
    6.6281   -0.7009   -1.2056 N   0  0  0  0  0  0
    6.4991    0.4469   -0.4359 O   0  0  0  0  0  0
    5.1841    0.6797   -0.1812 C   0  0  0  0  0  0
    4.6587    1.7487    0.5385 C   0  0  0  0  0  0
    3.2617    1.7880    0.6630 C   0  0  0  0  0  0
    2.4416    0.7893    0.1059 C   0  0  0  0  0  0
    0.9933    0.8450    0.2602 C   0  0  0  0  0  0
    0.2952    1.9832    0.3964 N   0  0  0  0  0  0
   -1.0203    1.5507    0.5413 O   0  0  0  0  0  0
   -0.9921    0.1884    0.5050 C   0  0  0  0  0  0
   -2.2493   -0.5644    0.7759 C   0  0  2  0  0  0
   -2.5295   -1.6007   -0.3343 C   0  0  0  0  0  0
   -4.0198   -1.5485   -0.5355 C   0  0  0  0  0  0
   -4.6857   -2.3234   -1.1963 O   0  0  0  0  0  0
   -4.5668   -0.3943    0.1615 C   0  0  0  0  0  0
   -5.8751    0.0584    0.1634 C   0  0  0  0  0  0
   -6.1586    1.1813    0.9350 C   0  0  0  0  0  0
   -7.7688    1.7887    0.9996 Cl  0  0  0  0  0  0
   -5.1463    1.8175    1.6738 C   0  0  0  0  0  0
   -3.8310    1.3289    1.6580 C   0  0  0  0  0  0
   -3.5403    0.2152    0.8791 C   0  0  0  0  0  0
    0.2153   -0.2927    0.3009 N   0  0  0  0  0  0
    3.0217   -0.2804   -0.6048 C   0  0  0  0  0  0
    4.4205   -0.3178   -0.7583 C   0  0  0  0  0  0
    5.6789   -2.2660   -3.1843 H   0  0  0  0  0  0
    4.0743   -2.4612   -2.4702 H   0  0  0  0  0  0
    5.4732   -3.2447   -1.7144 H   0  0  0  0  0  0
    5.2983    2.5101    0.9685 H   0  0  0  0  0  0
    2.8144    2.6140    1.2163 H   0  0  0  0  0  0
   -2.1185   -1.1000    1.7265 H   0  0  0  0  0  0
   -2.0422   -1.3514   -1.2836 H   0  0  0  0  0  0
   -2.2237   -2.6024   -0.0166 H   0  0  0  0  0  0
   -6.6479   -0.4523   -0.4032 H   0  0  0  0  0  0
   -5.3883    2.6910    2.2787 H   0  0  0  0  0  0
   -3.0673    1.8170    2.2600 H   0  0  0  0  0  0
    2.3990   -1.0561   -1.0431 H   0  0  0  0  0  0
  1  2  1  0  0  0
  1 27  1  0  0  0
  1 28  1  0  0  0
  1 29  1  0  0  0
  2  3  2  0  0  0
  2 26  1  0  0  0
  3  4  1  0  0  0
  4  5  1  0  0  0
  5  6  1  0  0  0
  5 26  2  0  0  0
  6  7  2  0  0  0
  6 30  1  0  0  0
  7  8  1  0  0  0
  7 31  1  0  0  0
  8  9  1  0  0  0
  8 25  2  0  0  0
  9 10  2  0  0  0
  9 24  1  0  0  0
 10 11  1  0  0  0
 11 12  1  0  0  0
 12 13  1  0  0  0
 12 24  2  0  0  0
 13 14  1  0  0  0
 13 23  1  0  0  0
 13 32  1  0  0  0
 14 15  1  0  0  0
 14 33  1  0  0  0
 14 34  1  0  0  0
 15 16  2  0  0  0
 15 17  1  0  0  0
 17 18  2  0  0  0
 17 23  1  0  0  0
 18 19  1  0  0  0
 18 35  1  0  0  0
 19 20  1  0  0  0
 19 21  2  0  0  0
 21 22  1  0  0  0
 21 36  1  0  0  0
 22 23  2  0  0  0
 22 37  1  0  0  0
 25 26  1  0  0  0
 25 38  1  0  0  0
M  END
> <energy>
68.2635

> <i_ionizer_Ion_state_n>
0

> <i_ionizer_Tot_Q>
0

> <s_ionizer_Ion_centers>


> <s_ionizer_Ion_types>


> <s_ionizer_Ion_ctrs_in>


> <r_ionizer_Ionization_penalty>
0

> <r_ionizer_Ionization_penalty_charging>
0

> <r_ionizer_Ionization_penalty_neutral>
0

$$$$
ZINC001211863395
                    3D
 Schrodinger Suite 2019-4.
 48 50  0  0  1  0            999 V2000
    4.5004   -2.7145    1.4593 C   0  0  0  0  0  0
    3.6409   -1.5469    1.5761 N   0  0  0  0  0  0
    2.2381   -1.7404    1.2389 C   0  0  0  0  0  0
    4.2151   -0.3201    1.9088 C   0  0  0  0  0  0
    5.3990   -0.1684    2.1952 O   0  0  0  0  0  0
    3.3708    0.8869    1.8793 C   0  0  0  0  0  0
    2.9864    1.4226    0.6464 C   0  0  0  0  0  0
    2.1867    2.5707    0.6015 C   0  0  0  0  0  0
    1.6506    3.0200   -0.6433 N   0  0  0  0  0  0
    0.4285    2.4265   -1.0760 C   0  0  0  0  0  0
    0.4433    1.1562   -1.6577 C   0  0  0  0  0  0
   -0.7468    0.4506   -1.8675 C   0  0  0  0  0  0
   -1.9688    0.9898   -1.4672 C   0  0  0  0  0  0
   -3.1788    0.3519   -1.5284 O   0  0  0  0  0  0
   -3.2663   -0.8724   -2.2592 C   0  0  0  0  0  0
   -2.8076   -2.0781   -1.4359 C   0  0  0  0  0  0
   -3.9483   -2.3268   -0.4577 C   0  0  0  0  0  0
   -5.2019   -1.7729   -1.1286 C   0  0  0  0  0  0
   -4.7478   -1.1971   -2.4681 C   0  0  0  0  0  0
   -1.9723    2.2731   -0.9139 C   0  0  0  0  0  0
   -3.1211    2.8221   -0.4974 F   0  0  0  0  0  0
   -0.7955    2.9976   -0.7264 C   0  0  0  0  0  0
    1.7656    3.1630    1.8061 C   0  0  0  0  0  0
    2.1726    2.6341    3.0340 C   0  0  0  0  0  0
    2.9795    1.5003    3.0656 C   0  0  0  0  0  0
    3.3302    0.9955    4.2561 F   0  0  0  0  0  0
    5.5236   -2.5088    1.7848 H   0  0  0  0  0  0
    4.0893   -3.5232    2.0736 H   0  0  0  0  0  0
    4.5184   -3.0359    0.4127 H   0  0  0  0  0  0
    1.8896   -2.6915    1.6559 H   0  0  0  0  0  0
    1.6100   -0.9448    1.6415 H   0  0  0  0  0  0
    2.1402   -1.7672    0.1490 H   0  0  0  0  0  0
    3.3055    0.9482   -0.2775 H   0  0  0  0  0  0
    1.5021    4.0280   -0.5719 H   0  0  0  0  0  0
    1.3926    0.6937   -1.9227 H   0  0  0  0  0  0
   -0.6717   -0.5428   -2.2979 H   0  0  0  0  0  0
   -2.7620   -0.7879   -3.2288 H   0  0  0  0  0  0
   -2.6908   -2.9484   -2.0974 H   0  0  0  0  0  0
   -1.8694   -1.9290   -0.8918 H   0  0  0  0  0  0
   -3.7678   -1.7880    0.4789 H   0  0  0  0  0  0
   -4.0410   -3.3895   -0.2078 H   0  0  0  0  0  0
   -5.9720   -2.5375   -1.2604 H   0  0  0  0  0  0
   -5.6336   -0.9866   -0.5011 H   0  0  0  0  0  0
   -5.3511   -0.3249   -2.7485 H   0  0  0  0  0  0
   -4.8551   -1.9615   -3.2476 H   0  0  0  0  0  0
   -0.8499    3.9703   -0.2490 H   0  0  0  0  0  0
    1.0965    4.0201    1.7983 H   0  0  0  0  0  0
    1.8442    3.0839    3.9674 H   0  0  0  0  0  0
  1  2  1  0  0  0
  1 27  1  0  0  0
  1 28  1  0  0  0
  1 29  1  0  0  0
  2  3  1  0  0  0
  2  4  1  0  0  0
  3 30  1  0  0  0
  3 31  1  0  0  0
  3 32  1  0  0  0
  4  5  2  0  0  0
  4  6  1  0  0  0
  6  7  2  0  0  0
  6 25  1  0  0  0
  7  8  1  0  0  0
  7 33  1  0  0  0
  8  9  1  0  0  0
  8 23  2  0  0  0
  9 10  1  0  0  0
  9 34  1  0  0  0
 10 11  2  0  0  0
 10 22  1  0  0  0
 11 12  1  0  0  0
 11 35  1  0  0  0
 12 13  2  0  0  0
 12 36  1  0  0  0
 13 14  1  0  0  0
 13 20  1  0  0  0
 14 15  1  0  0  0
 15 16  1  0  0  0
 15 19  1  0  0  0
 15 37  1  0  0  0
 16 17  1  0  0  0
 16 38  1  0  0  0
 16 39  1  0  0  0
 17 18  1  0  0  0
 17 40  1  0  0  0
 17 41  1  0  0  0
 18 19  1  0  0  0
 18 42  1  0  0  0
 18 43  1  0  0  0
 19 44  1  0  0  0
 19 45  1  0  0  0
 20 21  1  0  0  0
 20 22  2  0  0  0
 22 46  1  0  0  0
 23 24  1  0  0  0
 23 47  1  0  0  0
 24 25  2  0  0  0
 24 48  1  0  0  0
 25 26  1  0  0  0
M  END
> <energy>
55.3253

> <i_ionizer_Ion_state_n>
0

> <i_ionizer_Tot_Q>
0

> <s_ionizer_Ion_centers>


> <s_ionizer_Ion_types>


> <s_ionizer_Ion_ctrs_in>


> <r_ionizer_Ionization_penalty>
0

> <r_ionizer_Ionization_penalty_charging>
0

> <r_ionizer_Ionization_penalty_neutral>
0

$$$$
ZINC001211863411
                    3D
 Schrodinger Suite 2019-4.
 50 51  0  0  1  0            999 V2000
    2.4419   -4.6343   -0.1851 C   0  0  0  0  0  0
    2.3831   -3.1830   -0.1157 N   0  0  0  0  0  0
    2.2570   -2.4895   -1.3899 C   0  0  0  0  0  0
    2.8684   -2.5791    1.0474 C   0  0  0  0  0  0
    3.1660   -3.1891    2.0702 O   0  0  0  0  0  0
    3.0072   -1.1167    1.0759 C   0  0  0  0  0  0
    1.8668   -0.3085    1.1496 C   0  0  0  0  0  0
    1.9996    1.0863    1.1742 C   0  0  0  0  0  0
    0.8461    1.9041    1.1148 N   0  0  0  0  0  0
    0.3481    2.4704   -0.0960 C   0  0  0  0  0  0
    1.1684    3.1764   -0.9842 C   0  0  0  0  0  0
    0.6310    3.7310   -2.1427 C   0  0  0  0  0  0
    1.4345    4.3998   -2.9810 F   0  0  0  0  0  0
   -0.7191    3.6082   -2.4454 C   0  0  0  0  0  0
   -1.5527    2.9096   -1.5761 C   0  0  0  0  0  0
   -1.0171    2.3330   -0.4205 C   0  0  0  0  0  0
   -1.8472    1.6497    0.4355 O   0  0  0  0  0  0
   -2.1721    0.3453   -0.0781 C   0  0  0  0  0  0
   -3.5713   -0.1029    0.4116 C   0  0  0  0  0  0
   -4.6545    0.8215   -0.1683 C   0  0  0  0  0  0
   -3.6521   -0.0609    1.9463 C   0  0  0  0  0  0
   -3.8276   -1.5413   -0.0671 C   0  0  0  0  0  0
    3.2858    1.6469    1.1512 C   0  0  0  0  0  0
    4.4206    0.8331    1.1032 C   0  0  0  0  0  0
    4.2769   -0.5487    1.0652 C   0  0  0  0  0  0
    5.3762   -1.3137    0.9872 F   0  0  0  0  0  0
    1.5690   -5.0016   -0.7309 H   0  0  0  0  0  0
    2.4506   -5.0912    0.8075 H   0  0  0  0  0  0
    3.3546   -4.9247   -0.7125 H   0  0  0  0  0  0
    1.8577   -1.4825   -1.2620 H   0  0  0  0  0  0
    3.2442   -2.4242   -1.8564 H   0  0  0  0  0  0
    1.5756   -3.0443   -2.0418 H   0  0  0  0  0  0
    0.8862   -0.7725    1.1701 H   0  0  0  0  0  0
    0.0575    1.4560    1.5868 H   0  0  0  0  0  0
    2.2232    3.3207   -0.7880 H   0  0  0  0  0  0
   -1.1116    4.0619   -3.3499 H   0  0  0  0  0  0
   -2.6119    2.8154   -1.7953 H   0  0  0  0  0  0
   -1.4099   -0.3513    0.2881 H   0  0  0  0  0  0
   -2.1461    0.3152   -1.1757 H   0  0  0  0  0  0
   -4.6573    0.7878   -1.2636 H   0  0  0  0  0  0
   -5.6528    0.5240    0.1725 H   0  0  0  0  0  0
   -4.5010    1.8627    0.1344 H   0  0  0  0  0  0
   -3.4819    0.9496    2.3334 H   0  0  0  0  0  0
   -2.9086   -0.7253    2.4001 H   0  0  0  0  0  0
   -4.6400   -0.3816    2.2975 H   0  0  0  0  0  0
   -4.8195   -1.8935    0.2373 H   0  0  0  0  0  0
   -3.0880   -2.2349    0.3485 H   0  0  0  0  0  0
   -3.7722   -1.6116   -1.1595 H   0  0  0  0  0  0
    3.4040    2.7275    1.1872 H   0  0  0  0  0  0
    5.4144    1.2704    1.0899 H   0  0  0  0  0  0
  1  2  1  0  0  0
  1 27  1  0  0  0
  1 28  1  0  0  0
  1 29  1  0  0  0
  2  3  1  0  0  0
  2  4  1  0  0  0
  3 30  1  0  0  0
  3 31  1  0  0  0
  3 32  1  0  0  0
  4  5  2  0  0  0
  4  6  1  0  0  0
  6  7  2  0  0  0
  6 25  1  0  0  0
  7  8  1  0  0  0
  7 33  1  0  0  0
  8  9  1  0  0  0
  8 23  2  0  0  0
  9 10  1  0  0  0
  9 34  1  0  0  0
 10 11  2  0  0  0
 10 16  1  0  0  0
 11 12  1  0  0  0
 11 35  1  0  0  0
 12 13  1  0  0  0
 12 14  2  0  0  0
 14 15  1  0  0  0
 14 36  1  0  0  0
 15 16  2  0  0  0
 15 37  1  0  0  0
 16 17  1  0  0  0
 17 18  1  0  0  0
 18 19  1  0  0  0
 18 38  1  0  0  0
 18 39  1  0  0  0
 19 20  1  0  0  0
 19 21  1  0  0  0
 19 22  1  0  0  0
 20 40  1  0  0  0
 20 41  1  0  0  0
 20 42  1  0  0  0
 21 43  1  0  0  0
 21 44  1  0  0  0
 21 45  1  0  0  0
 22 46  1  0  0  0
 22 47  1  0  0  0
 22 48  1  0  0  0
 23 24  1  0  0  0
 23 49  1  0  0  0
 24 25  2  0  0  0
 24 50  1  0  0  0
 25 26  1  0  0  0
M  END
> <energy>
54.0073

> <i_ionizer_Ion_state_n>
0

> <i_ionizer_Tot_Q>
0

> <s_ionizer_Ion_centers>


> <s_ionizer_Ion_types>


> <s_ionizer_Ion_ctrs_in>


> <r_ionizer_Ionization_penalty>
0

> <r_ionizer_Ionization_penalty_charging>
0

> <r_ionizer_Ionization_penalty_neutral>
0

$$$$
ZINC001211863422
                    3D
 Schrodinger Suite 2019-4.
 52 53  0  0  1  0            999 V2000
    2.0980   -2.0030    2.4226 C   0  0  0  0  0  0
    2.8431   -3.0177    1.5672 C   0  0  0  0  0  0
    3.4648   -2.3720    0.3266 C   0  0  0  0  0  0
    4.7437   -1.5714    0.6264 C   0  0  0  0  0  0
    4.9857   -0.4570   -0.3939 C   0  0  0  0  0  0
    3.8551    0.4233   -0.3321 O   0  0  0  0  0  0
    3.9046    1.5654   -1.0525 C   0  0  0  0  0  0
    4.8399    2.0263   -1.6708 O   0  0  0  0  0  0
    2.5514    2.1383   -0.9494 C   0  0  0  0  0  0
    1.5038    1.4453   -1.5471 C   0  0  0  0  0  0
    0.1878    1.8245   -1.2946 C   0  0  0  0  0  0
   -0.1138    2.8854   -0.4294 C   0  0  0  0  0  0
   -1.4503    3.1471   -0.0041 N   0  0  0  0  0  0
   -2.2863    2.1301    0.5549 C   0  0  0  0  0  0
   -2.5453    2.1033    1.9344 C   0  0  0  0  0  0
   -3.1485    0.9810    2.5222 C   0  0  0  0  0  0
   -3.4751   -0.1234    1.7412 C   0  0  0  0  0  0
   -3.9854   -1.2071    2.3454 F   0  0  0  0  0  0
   -3.2848   -0.0897    0.3671 C   0  0  0  0  0  0
   -3.5204   -1.2786   -0.4783 C   0  0  0  0  0  0
   -3.0083   -2.3474   -0.1677 O   0  0  0  0  0  0
   -4.1951   -1.0607   -1.6875 N   0  0  0  0  0  0
   -3.9971   -2.0484   -2.7356 C   0  0  0  0  0  0
   -5.5287   -0.4785   -1.6272 C   0  0  0  0  0  0
   -2.7111    1.0461   -0.2237 C   0  0  0  0  0  0
    0.9580    3.6235    0.1008 C   0  0  0  0  0  0
    2.2895    3.2553   -0.1568 C   0  0  0  0  0  0
    1.3861   -1.4257    1.8265 H   0  0  0  0  0  0
    2.7901   -1.3039    2.8979 H   0  0  0  0  0  0
    1.5270   -2.4970    3.2122 H   0  0  0  0  0  0
    3.6027   -3.5364    2.1640 H   0  0  0  0  0  0
    2.1227   -3.7768    1.2390 H   0  0  0  0  0  0
    3.7180   -3.1564   -0.3960 H   0  0  0  0  0  0
    2.7016   -1.7439   -0.1467 H   0  0  0  0  0  0
    5.6023   -2.2544    0.6311 H   0  0  0  0  0  0
    4.6806   -1.1048    1.6156 H   0  0  0  0  0  0
    5.0668   -0.8709   -1.4072 H   0  0  0  0  0  0
    5.8975    0.0955   -0.1457 H   0  0  0  0  0  0
    1.6936    0.5628   -2.1570 H   0  0  0  0  0  0
   -0.5861    1.2342   -1.7643 H   0  0  0  0  0  0
   -1.4797    3.9868    0.5714 H   0  0  0  0  0  0
   -2.2383    2.9247    2.5767 H   0  0  0  0  0  0
   -3.3180    0.9434    3.5948 H   0  0  0  0  0  0
   -2.9733   -2.4354   -2.7124 H   0  0  0  0  0  0
   -4.7073   -2.8702   -2.6126 H   0  0  0  0  0  0
   -4.1568   -1.5662   -3.7038 H   0  0  0  0  0  0
   -5.7819   -0.0501   -2.5951 H   0  0  0  0  0  0
   -6.2377   -1.2797   -1.3870 H   0  0  0  0  0  0
   -5.6136    0.2851   -0.8513 H   0  0  0  0  0  0
   -2.5563    1.0542   -1.2987 H   0  0  0  0  0  0
    0.7747    4.4583    0.7714 H   0  0  0  0  0  0
    3.1104    3.7868    0.3195 H   0  0  0  0  0  0
  1  2  1  0  0  0
  1 28  1  0  0  0
  1 29  1  0  0  0
  1 30  1  0  0  0
  2  3  1  0  0  0
  2 31  1  0  0  0
  2 32  1  0  0  0
  3  4  1  0  0  0
  3 33  1  0  0  0
  3 34  1  0  0  0
  4  5  1  0  0  0
  4 35  1  0  0  0
  4 36  1  0  0  0
  5  6  1  0  0  0
  5 37  1  0  0  0
  5 38  1  0  0  0
  6  7  1  0  0  0
  7  8  2  0  0  0
  7  9  1  0  0  0
  9 10  2  0  0  0
  9 27  1  0  0  0
 10 11  1  0  0  0
 10 39  1  0  0  0
 11 12  2  0  0  0
 11 40  1  0  0  0
 12 13  1  0  0  0
 12 26  1  0  0  0
 13 14  1  0  0  0
 13 41  1  0  0  0
 14 15  2  0  0  0
 14 25  1  0  0  0
 15 16  1  0  0  0
 15 42  1  0  0  0
 16 17  2  0  0  0
 16 43  1  0  0  0
 17 18  1  0  0  0
 17 19  1  0  0  0
 19 20  1  0  0  0
 19 25  2  0  0  0
 20 21  2  0  0  0
 20 22  1  0  0  0
 22 23  1  0  0  0
 22 24  1  0  0  0
 23 44  1  0  0  0
 23 45  1  0  0  0
 23 46  1  0  0  0
 24 47  1  0  0  0
 24 48  1  0  0  0
 24 49  1  0  0  0
 25 50  1  0  0  0
 26 27  2  0  0  0
 26 51  1  0  0  0
 27 52  1  0  0  0
M  END
> <energy>
57.272

> <i_ionizer_Ion_state_n>
0

> <i_ionizer_Tot_Q>
0

> <s_ionizer_Ion_centers>


> <s_ionizer_Ion_types>


> <s_ionizer_Ion_ctrs_in>


> <r_ionizer_Ionization_penalty>
0

> <r_ionizer_Ionization_penalty_charging>
0

> <r_ionizer_Ionization_penalty_neutral>
0

$$$$
ZINC001211863539
                    3D
 Schrodinger Suite 2019-4.
 49 52  0  0  1  0            999 V2000
   -1.6131   -1.4310   -2.2695 C   0  0  0  0  0  0
   -2.0644   -0.1423   -1.6406 C   0  0  0  0  0  0
   -1.8670    0.9486   -2.4143 N   0  0  0  0  0  0
   -2.1683    2.1577   -1.9319 C   0  0  0  0  0  0
   -1.8426    3.2534   -2.7166 C   0  0  0  0  0  0
   -2.0994    4.5590   -2.3016 C   0  0  0  0  0  0
   -2.7091    4.7768   -1.0773 C   0  0  0  0  0  0
   -3.0436    3.6877   -0.2720 C   0  0  0  0  0  0
   -2.7704    2.3552   -0.6736 C   0  0  0  0  0  0
   -3.0294    1.1986    0.1186 C   0  0  0  0  0  0
   -3.6840    1.3362    1.4723 C   0  0  0  0  0  0
   -2.5994   -0.0707   -0.3452 C   0  0  0  0  0  0
   -2.5643   -1.2915    0.5605 C   0  0  0  0  0  0
   -1.2290   -1.4517    1.1934 C   0  0  0  0  0  0
   -0.2057   -2.1681    0.7902 N   0  0  0  0  0  0
    0.7834   -1.7694    1.6603 C   0  0  0  0  0  0
    2.1438   -2.2468    1.5138 C   0  0  0  0  0  0
    2.4445   -3.5386    1.9718 C   0  0  0  0  0  0
    3.7261   -4.0623    1.8134 C   0  0  0  0  0  0
    4.7149   -3.2979    1.2018 C   0  0  0  0  0  0
    4.4227   -2.0096    0.7443 C   0  0  0  0  0  0
    3.1347   -1.4596    0.8821 C   0  0  0  0  0  0
    2.8153   -0.1846    0.3623 N   0  0  0  0  0  0
    2.4349   -0.2633   -1.0506 C   0  0  0  0  0  0
    3.7622    0.8785    0.6844 C   0  0  0  0  0  0
    0.3658   -0.9533    2.6402 N   0  0  0  0  0  0
   -0.9714   -0.7165    2.3139 O   0  0  0  0  0  0
   -2.3990   -2.1897   -2.2167 H   0  0  0  0  0  0
   -1.3865   -1.2786   -3.3311 H   0  0  0  0  0  0
   -0.7072   -1.7989   -1.7844 H   0  0  0  0  0  0
   -1.3527    3.0832   -3.6714 H   0  0  0  0  0  0
   -1.8148    5.3943   -2.9346 H   0  0  0  0  0  0
   -2.9121    5.7874   -0.7351 H   0  0  0  0  0  0
   -3.4957    3.9053    0.6917 H   0  0  0  0  0  0
   -4.3525    0.4972    1.6775 H   0  0  0  0  0  0
   -4.3363    2.2113    1.5357 H   0  0  0  0  0  0
   -2.9268    1.4055    2.2574 H   0  0  0  0  0  0
   -3.3326   -1.2550    1.3367 H   0  0  0  0  0  0
   -2.8061   -2.1964   -0.0119 H   0  0  0  0  0  0
    1.6738   -4.1433    2.4421 H   0  0  0  0  0  0
    3.9489   -5.0649    2.1617 H   0  0  0  0  0  0
    5.7157   -3.7019    1.0723 H   0  0  0  0  0  0
    5.2093   -1.4522    0.2462 H   0  0  0  0  0  0
    3.2917   -0.5242   -1.6825 H   0  0  0  0  0  0
    1.6457   -1.0040   -1.2143 H   0  0  0  0  0  0
    2.0444    0.7029   -1.3862 H   0  0  0  0  0  0
    3.3273    1.8496    0.4201 H   0  0  0  0  0  0
    4.7062    0.7758    0.1376 H   0  0  0  0  0  0
    3.9720    0.9024    1.7592 H   0  0  0  0  0  0
  1  2  1  0  0  0
  1 28  1  0  0  0
  1 29  1  0  0  0
  1 30  1  0  0  0
  2  3  2  0  0  0
  2 12  1  0  0  0
  3  4  1  0  0  0
  4  5  2  0  0  0
  4  9  1  0  0  0
  5  6  1  0  0  0
  5 31  1  0  0  0
  6  7  2  0  0  0
  6 32  1  0  0  0
  7  8  1  0  0  0
  7 33  1  0  0  0
  8  9  2  0  0  0
  8 34  1  0  0  0
  9 10  1  0  0  0
 10 11  1  0  0  0
 10 12  2  0  0  0
 11 35  1  0  0  0
 11 36  1  0  0  0
 11 37  1  0  0  0
 12 13  1  0  0  0
 13 14  1  0  0  0
 13 38  1  0  0  0
 13 39  1  0  0  0
 14 15  2  0  0  0
 14 27  1  0  0  0
 15 16  1  0  0  0
 16 17  1  0  0  0
 16 26  2  0  0  0
 17 18  2  0  0  0
 17 22  1  0  0  0
 18 19  1  0  0  0
 18 40  1  0  0  0
 19 20  2  0  0  0
 19 41  1  0  0  0
 20 21  1  0  0  0
 20 42  1  0  0  0
 21 22  2  0  0  0
 21 43  1  0  0  0
 22 23  1  0  0  0
 23 24  1  0  0  0
 23 25  1  0  0  0
 24 44  1  0  0  0
 24 45  1  0  0  0
 24 46  1  0  0  0
 25 47  1  0  0  0
 25 48  1  0  0  0
 25 49  1  0  0  0
 26 27  1  0  0  0
M  END
> <energy>
116.509

> <i_ionizer_Ion_state_n>
0

> <i_ionizer_Tot_Q>
0

> <s_ionizer_Ion_centers>


> <s_ionizer_Ion_types>


> <s_ionizer_Ion_ctrs_in>


> <r_ionizer_Ionization_penalty>
0.00296205

> <r_ionizer_Ionization_penalty_charging>
0

> <r_ionizer_Ionization_penalty_neutral>
0.00296205

$$$$
ZINC001211863595
                    3D
 Schrodinger Suite 2019-4.
 43 46  0  0  1  0            999 V2000
    6.0578   -1.9617   -0.8776 C   0  0  0  0  0  0
    6.3312   -0.6600   -0.1387 C   0  0  0  0  0  0
    5.6088   -0.6325    1.2105 C   0  0  0  0  0  0
    5.1519    0.6985    1.5232 O   0  0  0  0  0  0
    3.8404    0.8311    1.1498 C   0  0  0  0  0  0
    2.8259    0.3133    1.9552 C   0  0  0  0  0  0
    1.5090    0.3119    1.4920 C   0  0  0  0  0  0
    1.2184    0.8211    0.2210 C   0  0  0  0  0  0
   -0.1100    0.7046   -0.3379 C   0  0  0  0  0  0
   -0.3693   -0.0297   -1.4277 N   0  0  0  0  0  0
   -1.7386    0.1371   -1.6112 O   0  0  0  0  0  0
   -2.1619    0.9898   -0.6331 C   0  0  0  0  0  0
   -3.5932    1.4117   -0.6481 C   0  0  1  0  0  0
   -4.1910    1.4225   -2.0718 C   0  0  0  0  0  0
   -5.0282    0.1705   -2.1313 C   0  0  0  0  0  0
   -5.5158   -0.3305   -3.1242 O   0  0  0  0  0  0
   -5.2377   -0.3294   -0.7794 C   0  0  0  0  0  0
   -6.0517   -1.3659   -0.3661 C   0  0  0  0  0  0
   -6.1247   -1.6009    1.0047 C   0  0  0  0  0  0
   -7.1024   -2.8899    1.5928 Cl  0  0  0  0  0  0
   -5.4098   -0.8049    1.9158 C   0  0  0  0  0  0
   -4.5733    0.2255    1.4634 C   0  0  0  0  0  0
   -4.4788    0.4436    0.0958 C   0  0  0  0  0  0
   -1.2030    1.3435    0.1965 N   0  0  0  0  0  0
    2.2361    1.4162   -0.5383 C   0  0  0  0  0  0
    3.5455    1.4499   -0.0590 C   0  0  0  0  0  0
    4.9840   -2.0845   -1.0579 H   0  0  0  0  0  0
    6.4099   -2.8204   -0.3020 H   0  0  0  0  0  0
    6.5577   -1.9711   -1.8497 H   0  0  0  0  0  0
    7.4113   -0.5547    0.0291 H   0  0  0  0  0  0
    6.0328    0.1813   -0.7734 H   0  0  0  0  0  0
    6.3155   -0.9246    1.9954 H   0  0  0  0  0  0
    4.7912   -1.3670    1.2395 H   0  0  0  0  0  0
    3.0664   -0.1276    2.9164 H   0  0  0  0  0  0
    0.7240   -0.1324    2.1009 H   0  0  0  0  0  0
   -3.6658    2.4153   -0.2175 H   0  0  0  0  0  0
   -3.4427    1.4368   -2.8708 H   0  0  0  0  0  0
   -4.8685    2.2762   -2.1973 H   0  0  0  0  0  0
   -6.6089   -1.9583   -1.0836 H   0  0  0  0  0  0
   -5.4881   -1.0038    2.9844 H   0  0  0  0  0  0
   -4.0057    0.8167    2.1790 H   0  0  0  0  0  0
    2.0136    1.8302   -1.5197 H   0  0  0  0  0  0
    4.3375    1.9028   -0.6491 H   0  0  0  0  0  0
  1  2  1  0  0  0
  1 27  1  0  0  0
  1 28  1  0  0  0
  1 29  1  0  0  0
  2  3  1  0  0  0
  2 30  1  0  0  0
  2 31  1  0  0  0
  3  4  1  0  0  0
  3 32  1  0  0  0
  3 33  1  0  0  0
  4  5  1  0  0  0
  5  6  2  0  0  0
  5 26  1  0  0  0
  6  7  1  0  0  0
  6 34  1  0  0  0
  7  8  2  0  0  0
  7 35  1  0  0  0
  8  9  1  0  0  0
  8 25  1  0  0  0
  9 10  2  0  0  0
  9 24  1  0  0  0
 10 11  1  0  0  0
 11 12  1  0  0  0
 12 13  1  0  0  0
 12 24  2  0  0  0
 13 14  1  0  0  0
 13 23  1  0  0  0
 13 36  1  0  0  0
 14 15  1  0  0  0
 14 37  1  0  0  0
 14 38  1  0  0  0
 15 16  2  0  0  0
 15 17  1  0  0  0
 17 18  2  0  0  0
 17 23  1  0  0  0
 18 19  1  0  0  0
 18 39  1  0  0  0
 19 20  1  0  0  0
 19 21  2  0  0  0
 21 22  1  0  0  0
 21 40  1  0  0  0
 22 23  2  0  0  0
 22 41  1  0  0  0
 25 26  2  0  0  0
 25 42  1  0  0  0
 26 43  1  0  0  0
M  END
> <energy>
72.1136

> <i_ionizer_Ion_state_n>
0

> <i_ionizer_Tot_Q>
0

> <s_ionizer_Ion_centers>


> <s_ionizer_Ion_types>


> <s_ionizer_Ion_ctrs_in>


> <r_ionizer_Ionization_penalty>
0

> <r_ionizer_Ionization_penalty_charging>
0

> <r_ionizer_Ionization_penalty_neutral>
0

$$$$
ZINC001211863597
                    3D
 Schrodinger Suite 2019-4.
 43 46  0  0  1  0            999 V2000
    3.5708    2.6867    0.9209 C   0  0  0  0  0  0
    4.5346    1.7061    0.2634 C   0  0  0  0  0  0
    4.1099    1.3170   -1.1508 C   0  0  0  0  0  0
    4.4806   -0.0536   -1.4316 O   0  0  0  0  0  0
    3.4252   -0.8793   -1.1466 C   0  0  0  0  0  0
    2.2690   -0.8428   -1.9204 C   0  0  0  0  0  0
    1.1138   -1.4689   -1.4592 C   0  0  0  0  0  0
    1.1169   -2.1723   -0.2465 C   0  0  0  0  0  0
   -0.1593   -2.5314    0.3606 C   0  0  0  0  0  0
   -0.2826   -3.1311    1.5577 N   0  0  0  0  0  0
   -1.5873   -2.8251    1.9486 O   0  0  0  0  0  0
   -2.1301   -2.0819    0.9379 C   0  0  0  0  0  0
   -3.3257   -1.2484    1.2658 C   0  0  2  0  0  0
   -4.6522   -1.7590    0.6702 C   0  0  0  0  0  0
   -4.9883   -0.7701   -0.4161 C   0  0  0  0  0  0
   -5.8713   -0.8838   -1.2562 O   0  0  0  0  0  0
   -4.1206    0.3940   -0.3050 C   0  0  0  0  0  0
   -4.1397    1.5681   -1.0375 C   0  0  0  0  0  0
   -3.1306    2.4968   -0.7770 C   0  0  0  0  0  0
   -3.0396    3.9475   -1.7072 Cl  0  0  0  0  0  0
   -2.1645    2.2628    0.2151 C   0  0  0  0  0  0
   -2.1902    1.0833    0.9601 C   0  0  0  0  0  0
   -3.1809    0.1439    0.6872 C   0  0  0  0  0  0
   -1.3374   -1.9879   -0.1082 N   0  0  0  0  0  0
    2.3311   -2.3221    0.4470 C   0  0  0  0  0  0
    3.4902   -1.6824   -0.0107 C   0  0  0  0  0  0
    2.5754    2.2451    1.0515 H   0  0  0  0  0  0
    3.4697    3.6071    0.3400 H   0  0  0  0  0  0
    3.9312    2.9582    1.9197 H   0  0  0  0  0  0
    4.6320    0.8298    0.9104 H   0  0  0  0  0  0
    5.5315    2.1560    0.2176 H   0  0  0  0  0  0
    3.0402    1.5071   -1.3057 H   0  0  0  0  0  0
    4.6362    1.9404   -1.8762 H   0  0  0  0  0  0
    2.2389   -0.2650   -2.8376 H   0  0  0  0  0  0
    0.1891   -1.3325   -2.0150 H   0  0  0  0  0  0
   -3.4271   -1.1722    2.3536 H   0  0  0  0  0  0
   -4.5998   -2.7851    0.2988 H   0  0  0  0  0  0
   -5.4499   -1.6805    1.4195 H   0  0  0  0  0  0
   -4.8948    1.7431   -1.7960 H   0  0  0  0  0  0
   -1.3699    2.9859    0.3852 H   0  0  0  0  0  0
   -1.4235    0.8860    1.7064 H   0  0  0  0  0  0
    2.3726   -2.8585    1.3965 H   0  0  0  0  0  0
    4.4069   -1.7311    0.5697 H   0  0  0  0  0  0
  1  2  1  0  0  0
  1 27  1  0  0  0
  1 28  1  0  0  0
  1 29  1  0  0  0
  2  3  1  0  0  0
  2 30  1  0  0  0
  2 31  1  0  0  0
  3  4  1  0  0  0
  3 32  1  0  0  0
  3 33  1  0  0  0
  4  5  1  0  0  0
  5  6  2  0  0  0
  5 26  1  0  0  0
  6  7  1  0  0  0
  6 34  1  0  0  0
  7  8  2  0  0  0
  7 35  1  0  0  0
  8  9  1  0  0  0
  8 25  1  0  0  0
  9 10  2  0  0  0
  9 24  1  0  0  0
 10 11  1  0  0  0
 11 12  1  0  0  0
 12 13  1  0  0  0
 12 24  2  0  0  0
 13 14  1  0  0  0
 13 23  1  0  0  0
 13 36  1  0  0  0
 14 15  1  0  0  0
 14 37  1  0  0  0
 14 38  1  0  0  0
 15 16  2  0  0  0
 15 17  1  0  0  0
 17 18  2  0  0  0
 17 23  1  0  0  0
 18 19  1  0  0  0
 18 39  1  0  0  0
 19 20  1  0  0  0
 19 21  2  0  0  0
 21 22  1  0  0  0
 21 40  1  0  0  0
 22 23  2  0  0  0
 22 41  1  0  0  0
 25 26  2  0  0  0
 25 42  1  0  0  0
 26 43  1  0  0  0
M  END
> <energy>
76.4811

> <i_ionizer_Ion_state_n>
0

> <i_ionizer_Tot_Q>
0

> <s_ionizer_Ion_centers>


> <s_ionizer_Ion_types>


> <s_ionizer_Ion_ctrs_in>


> <r_ionizer_Ionization_penalty>
0

> <r_ionizer_Ionization_penalty_charging>
0

> <r_ionizer_Ionization_penalty_neutral>
0

$$$$
ZINC001211863607
                    3D
 Schrodinger Suite 2019-4.
 41 44  0  0  1  0            999 V2000
   -1.2246    0.6117    3.0791 C   0  0  0  0  0  0
   -1.8458    0.3838    1.7309 C   0  0  0  0  0  0
   -2.5497    1.4394    1.2605 N   0  0  0  0  0  0
   -3.0674    1.3861    0.0305 C   0  0  0  0  0  0
   -3.7034    2.5228   -0.4491 C   0  0  0  0  0  0
   -4.2384    2.5809   -1.7344 C   0  0  0  0  0  0
   -4.1411    1.4752   -2.5636 C   0  0  0  0  0  0
   -3.5186    0.3170   -2.0941 C   0  0  0  0  0  0
   -2.9712    0.2443   -0.7894 C   0  0  0  0  0  0
   -2.3045   -0.8990   -0.2569 C   0  0  0  0  0  0
   -2.2180   -2.1512   -1.1007 C   0  0  0  0  0  0
   -1.6841   -0.8132    1.0157 C   0  0  0  0  0  0
   -0.7605   -1.8975    1.5494 C   0  0  0  0  0  0
    0.5935   -1.7980    0.9432 C   0  0  0  0  0  0
    1.6119   -1.0219    1.2541 N   0  0  0  0  0  0
    2.4584   -1.2173    0.1849 C   0  0  0  0  0  0
    3.6549   -0.4210   -0.0309 C   0  0  0  0  0  0
    3.9181    0.0963   -1.3094 C   0  0  0  0  0  0
    5.0356    0.8981   -1.5166 C   0  0  0  0  0  0
    5.2660    1.3982   -2.7375 F   0  0  0  0  0  0
    5.9107    1.1861   -0.4812 C   0  0  0  0  0  0
    5.6537    0.6601    0.7794 C   0  0  0  0  0  0
    6.4992    0.9232    1.7838 F   0  0  0  0  0  0
    4.5334   -0.1339    1.0186 C   0  0  0  0  0  0
    2.0386   -2.1477   -0.6864 N   0  0  0  0  0  0
    0.8071   -2.5399   -0.1802 O   0  0  0  0  0  0
   -1.4652    1.6141    3.4535 H   0  0  0  0  0  0
   -0.1351    0.5408    3.0168 H   0  0  0  0  0  0
   -1.6066   -0.1145    3.8043 H   0  0  0  0  0  0
   -3.7623    3.3977    0.1959 H   0  0  0  0  0  0
   -4.7141    3.4932   -2.0834 H   0  0  0  0  0  0
   -4.5380    1.5112   -3.5742 H   0  0  0  0  0  0
   -3.4406   -0.5236   -2.7782 H   0  0  0  0  0  0
   -1.4825   -2.0203   -1.8993 H   0  0  0  0  0  0
   -3.1921   -2.3885   -1.5433 H   0  0  0  0  0  0
   -1.9487   -3.0404   -0.5301 H   0  0  0  0  0  0
   -1.1891   -2.8897    1.3777 H   0  0  0  0  0  0
   -0.6713   -1.8452    2.6408 H   0  0  0  0  0  0
    3.2503   -0.1023   -2.1437 H   0  0  0  0  0  0
    6.7758    1.8145   -0.6531 H   0  0  0  0  0  0
    4.3654   -0.5295    2.0165 H   0  0  0  0  0  0
  1  2  1  0  0  0
  1 27  1  0  0  0
  1 28  1  0  0  0
  1 29  1  0  0  0
  2  3  2  0  0  0
  2 12  1  0  0  0
  3  4  1  0  0  0
  4  5  2  0  0  0
  4  9  1  0  0  0
  5  6  1  0  0  0
  5 30  1  0  0  0
  6  7  2  0  0  0
  6 31  1  0  0  0
  7  8  1  0  0  0
  7 32  1  0  0  0
  8  9  2  0  0  0
  8 33  1  0  0  0
  9 10  1  0  0  0
 10 11  1  0  0  0
 10 12  2  0  0  0
 11 34  1  0  0  0
 11 35  1  0  0  0
 11 36  1  0  0  0
 12 13  1  0  0  0
 13 14  1  0  0  0
 13 37  1  0  0  0
 13 38  1  0  0  0
 14 15  2  0  0  0
 14 26  1  0  0  0
 15 16  1  0  0  0
 16 17  1  0  0  0
 16 25  2  0  0  0
 17 18  2  0  0  0
 17 24  1  0  0  0
 18 19  1  0  0  0
 18 39  1  0  0  0
 19 20  1  0  0  0
 19 21  2  0  0  0
 21 22  1  0  0  0
 21 40  1  0  0  0
 22 23  1  0  0  0
 22 24  2  0  0  0
 24 41  1  0  0  0
 25 26  1  0  0  0
M  END
> <energy>
62.917

> <i_ionizer_Ion_state_n>
0

> <i_ionizer_Tot_Q>
0

> <s_ionizer_Ion_centers>


> <s_ionizer_Ion_types>


> <s_ionizer_Ion_ctrs_in>


> <r_ionizer_Ionization_penalty>
0

> <r_ionizer_Ionization_penalty_charging>
0

> <r_ionizer_Ionization_penalty_neutral>
0

$$$$
ZINC001211863638
                    3D
 Schrodinger Suite 2019-4.
 48 52  0  0  1  0            999 V2000
   -2.1785    1.1940   -3.4166 C   0  0  0  0  0  0
   -2.7576    0.6722   -2.1333 C   0  0  0  0  0  0
   -3.3791   -0.5241   -2.2546 N   0  0  0  0  0  0
   -3.8985   -1.1095   -1.1726 C   0  0  0  0  0  0
   -4.5240   -2.3378   -1.3384 C   0  0  0  0  0  0
   -5.0822   -3.0356   -0.2679 C   0  0  0  0  0  0
   -5.0109   -2.4945    1.0054 C   0  0  0  0  0  0
   -4.3971   -1.2550    1.1921 C   0  0  0  0  0  0
   -3.8324   -0.5321    0.1119 C   0  0  0  0  0  0
   -3.1983    0.7414    0.2338 C   0  0  0  0  0  0
   -3.1505    1.4040    1.5922 C   0  0  0  0  0  0
   -2.6654    1.3710   -0.9206 C   0  0  0  0  0  0
   -1.9632    2.7193   -0.8659 C   0  0  0  0  0  0
   -0.5663    2.6182   -0.3703 C   0  0  0  0  0  0
    0.4070    1.8312   -0.7673 N   0  0  0  0  0  0
    1.3651    2.0324    0.2012 C   0  0  0  0  0  0
    2.5364    1.1761    0.3050 C   0  0  0  0  0  0
    3.1321    0.6449   -0.8441 C   0  0  0  0  0  0
    4.1769   -0.2831   -0.7594 C   0  0  0  0  0  0
    4.5905   -0.6902    0.5182 C   0  0  0  0  0  0
    4.0242   -0.1643    1.6825 C   0  0  0  0  0  0
    4.6432   -0.8091    2.7857 C   0  0  0  0  0  0
    5.5503   -1.7148    2.2854 C   0  0  0  0  0  0
    5.5384   -1.6095    0.9198 N   0  0  0  0  0  0
    6.3943   -2.3675    0.0353 C   0  0  0  0  0  0
    3.0056    0.7999    1.5745 C   0  0  0  0  0  0
    1.0454    2.9872    1.0934 N   0  0  0  0  0  0
   -0.2334    3.3846    0.7079 O   0  0  0  0  0  0
   -1.1109    1.4082   -3.2990 H   0  0  0  0  0  0
   -2.7113    2.0941   -3.7374 H   0  0  0  0  0  0
   -2.2768    0.4519   -4.2166 H   0  0  0  0  0  0
   -4.5814   -2.7622   -2.3372 H   0  0  0  0  0  0
   -5.5597   -3.9975   -0.4360 H   0  0  0  0  0  0
   -5.4345   -3.0260    1.8524 H   0  0  0  0  0  0
   -4.3614   -0.8603    2.2049 H   0  0  0  0  0  0
   -2.7889    0.7051    2.3525 H   0  0  0  0  0  0
   -2.4779    2.2604    1.6420 H   0  0  0  0  0  0
   -4.1515    1.7578    1.8618 H   0  0  0  0  0  0
   -2.5464    3.4120   -0.2483 H   0  0  0  0  0  0
   -1.9465    3.1978   -1.8485 H   0  0  0  0  0  0
    2.7673    0.9329   -1.8276 H   0  0  0  0  0  0
    4.6214   -0.6973   -1.6586 H   0  0  0  0  0  0
    4.4213   -0.6483    3.8326 H   0  0  0  0  0  0
    6.1978   -2.4172    2.7925 H   0  0  0  0  0  0
    7.0816   -1.6727   -0.4521 H   0  0  0  0  0  0
    5.7788   -2.8855   -0.7034 H   0  0  0  0  0  0
    6.9594   -3.1007    0.6156 H   0  0  0  0  0  0
    2.5477    1.1983    2.4770 H   0  0  0  0  0  0
  1  2  1  0  0  0
  1 29  1  0  0  0
  1 30  1  0  0  0
  1 31  1  0  0  0
  2  3  2  0  0  0
  2 12  1  0  0  0
  3  4  1  0  0  0
  4  5  2  0  0  0
  4  9  1  0  0  0
  5  6  1  0  0  0
  5 32  1  0  0  0
  6  7  2  0  0  0
  6 33  1  0  0  0
  7  8  1  0  0  0
  7 34  1  0  0  0
  8  9  2  0  0  0
  8 35  1  0  0  0
  9 10  1  0  0  0
 10 11  1  0  0  0
 10 12  2  0  0  0
 11 36  1  0  0  0
 11 37  1  0  0  0
 11 38  1  0  0  0
 12 13  1  0  0  0
 13 14  1  0  0  0
 13 39  1  0  0  0
 13 40  1  0  0  0
 14 15  2  0  0  0
 14 28  1  0  0  0
 15 16  1  0  0  0
 16 17  1  0  0  0
 16 27  2  0  0  0
 17 18  2  0  0  0
 17 26  1  0  0  0
 18 19  1  0  0  0
 18 41  1  0  0  0
 19 20  2  0  0  0
 19 42  1  0  0  0
 20 21  1  0  0  0
 20 24  1  0  0  0
 21 22  1  0  0  0
 21 26  2  0  0  0
 22 23  2  0  0  0
 22 43  1  0  0  0
 23 24  1  0  0  0
 23 44  1  0  0  0
 24 25  1  0  0  0
 25 45  1  0  0  0
 25 46  1  0  0  0
 25 47  1  0  0  0
 26 48  1  0  0  0
 27 28  1  0  0  0
M  END
> <energy>
89.7255

> <i_ionizer_Ion_state_n>
0

> <i_ionizer_Tot_Q>
0

> <s_ionizer_Ion_centers>


> <s_ionizer_Ion_types>


> <s_ionizer_Ion_ctrs_in>


> <r_ionizer_Ionization_penalty>
0

> <r_ionizer_Ionization_penalty_charging>
0

> <r_ionizer_Ionization_penalty_neutral>
0

$$$$
ZINC001211863650
                    3D
 Schrodinger Suite 2019-4.
 45 47  0  0  1  0            999 V2000
   -2.8067    0.7138   -0.1838 C   0  0  0  0  0  0
   -3.6576   -0.4319    0.1026 N   0  0  0  0  0  0
   -4.4714   -0.9217   -0.9976 C   0  0  0  0  0  0
   -3.4996   -1.2324    1.2322 C   0  0  0  0  0  0
   -4.1627   -2.2410    1.4702 O   0  0  0  0  0  0
   -2.3913   -0.9215    2.1399 C   0  0  0  0  0  0
   -1.1505   -1.4912    1.8619 C   0  0  0  0  0  0
   -0.0420   -1.2039    2.6666 C   0  0  0  0  0  0
    1.2241   -1.7591    2.3347 N   0  0  0  0  0  0
    1.6975   -1.7201    0.9965 C   0  0  0  0  0  0
    2.1187   -2.8900    0.3679 C   0  0  0  0  0  0
    2.5602   -2.8499   -0.9566 C   0  0  0  0  0  0
    2.6243   -1.6325   -1.6427 C   0  0  0  0  0  0
    2.2492   -0.4390   -1.0191 C   0  0  0  0  0  0
    2.3304    0.8617   -1.6940 C   0  0  0  0  0  0
    3.5518    1.3627   -2.1685 C   0  0  0  0  0  0
    3.6298    2.6417   -2.7275 C   0  0  0  0  0  0
    2.4822    3.4175   -2.8354 C   0  0  0  0  0  0
    2.5991    4.6487   -3.4061 O   0  0  0  0  0  0
    1.2594    2.9487   -2.3763 C   0  0  0  0  0  0
    1.1881    1.6717   -1.8143 C   0  0  0  0  0  0
    1.7912   -0.5047    0.3069 C   0  0  0  0  0  0
   -0.2188   -0.4043    3.8030 C   0  0  0  0  0  0
   -1.4708    0.1612    4.0798 C   0  0  0  0  0  0
   -2.5558   -0.0936    3.2420 C   0  0  0  0  0  0
   -3.7354    0.4822    3.5066 F   0  0  0  0  0  0
   -1.8345    0.3663   -0.5427 H   0  0  0  0  0  0
   -3.2746    1.3411   -0.9456 H   0  0  0  0  0  0
   -2.6594    1.3143    0.7156 H   0  0  0  0  0  0
   -3.8119   -1.2724   -1.8003 H   0  0  0  0  0  0
   -5.1215   -1.7494   -0.7006 H   0  0  0  0  0  0
   -5.0842   -0.1007   -1.3748 H   0  0  0  0  0  0
   -1.0506   -2.1556    1.0069 H   0  0  0  0  0  0
    1.9469   -1.3647    2.9347 H   0  0  0  0  0  0
    2.0730   -3.8345    0.9023 H   0  0  0  0  0  0
    2.8591   -3.7724   -1.4536 H   0  0  0  0  0  0
    2.9626   -1.6247   -2.6740 H   0  0  0  0  0  0
    4.4613    0.7705   -2.0773 H   0  0  0  0  0  0
    4.5854    3.0311   -3.0692 H   0  0  0  0  0  0
    1.7073    5.0076   -3.5509 H   0  0  0  0  0  0
    0.3622    3.5536   -2.4349 H   0  0  0  0  0  0
    0.2268    1.3048   -1.4562 H   0  0  0  0  0  0
    1.5007    0.4151    0.8130 H   0  0  0  0  0  0
    0.6148   -0.1987    4.4676 H   0  0  0  0  0  0
   -1.6070    0.7959    4.9511 H   0  0  0  0  0  0
  1  2  1  0  0  0
  1 27  1  0  0  0
  1 28  1  0  0  0
  1 29  1  0  0  0
  2  3  1  0  0  0
  2  4  1  0  0  0
  3 30  1  0  0  0
  3 31  1  0  0  0
  3 32  1  0  0  0
  4  5  2  0  0  0
  4  6  1  0  0  0
  6  7  2  0  0  0
  6 25  1  0  0  0
  7  8  1  0  0  0
  7 33  1  0  0  0
  8  9  1  0  0  0
  8 23  2  0  0  0
  9 10  1  0  0  0
  9 34  1  0  0  0
 10 11  2  0  0  0
 10 22  1  0  0  0
 11 12  1  0  0  0
 11 35  1  0  0  0
 12 13  2  0  0  0
 12 36  1  0  0  0
 13 14  1  0  0  0
 13 37  1  0  0  0
 14 15  1  0  0  0
 14 22  2  0  0  0
 15 16  2  0  0  0
 15 21  1  0  0  0
 16 17  1  0  0  0
 16 38  1  0  0  0
 17 18  2  0  0  0
 17 39  1  0  0  0
 18 19  1  0  0  0
 18 20  1  0  0  0
 19 40  1  0  0  0
 20 21  2  0  0  0
 20 41  1  0  0  0
 21 42  1  0  0  0
 22 43  1  0  0  0
 23 24  1  0  0  0
 23 44  1  0  0  0
 24 25  2  0  0  0
 24 45  1  0  0  0
 25 26  1  0  0  0
M  END
> <energy>
41.7858

> <i_ionizer_Ion_state_n>
0

> <i_ionizer_Tot_Q>
0

> <s_ionizer_Ion_centers>


> <s_ionizer_Ion_types>


> <s_ionizer_Ion_ctrs_in>


> <r_ionizer_Ionization_penalty>
0.00148639

> <r_ionizer_Ionization_penalty_charging>
0

> <r_ionizer_Ionization_penalty_neutral>
0.00148639

$$$$
ZINC001211863651
                    3D
 Schrodinger Suite 2019-4.
 50 51  0  0  1  0            999 V2000
    1.2486   -2.8952    0.3558 C   0  0  0  0  0  0
    0.3903   -1.7837   -0.2194 C   0  0  0  0  0  0
   -1.1007   -2.1419   -0.3048 C   0  0  0  0  0  0
   -1.4126   -3.3564   -1.1913 C   0  0  0  0  0  0
   -0.9037   -3.2294   -2.6202 C   0  0  0  0  0  0
   -1.7766   -1.0138   -0.8754 O   0  0  0  0  0  0
   -2.5961   -0.2769   -0.0631 C   0  0  0  0  0  0
   -3.4273   -0.8293    0.9174 C   0  0  0  0  0  0
   -4.2965   -0.0103    1.6376 C   0  0  0  0  0  0
   -4.3538    1.3494    1.3556 C   0  0  0  0  0  0
   -5.2308    2.1141    2.0175 F   0  0  0  0  0  0
   -3.5387    1.9148    0.3820 C   0  0  0  0  0  0
   -2.6527    1.1069   -0.3337 C   0  0  0  0  0  0
   -1.8588    1.6990   -1.3553 N   0  0  0  0  0  0
   -0.4511    1.8817   -1.2691 C   0  0  0  0  0  0
    0.2831    1.9875   -2.4598 C   0  0  0  0  0  0
    1.6579    2.2268   -2.4361 C   0  0  0  0  0  0
    2.3096    2.3828   -1.2157 C   0  0  0  0  0  0
    3.6282    2.6240   -1.2191 F   0  0  0  0  0  0
    1.5982    2.2917   -0.0216 C   0  0  0  0  0  0
    2.2243    2.5295    1.2935 C   0  0  0  0  0  0
    1.7875    3.4700    1.9482 O   0  0  0  0  0  0
    3.2132    1.6572    1.7672 N   0  0  0  0  0  0
    3.5285    0.3809    1.1494 C   0  0  0  0  0  0
    3.5869    1.7890    3.1665 C   0  0  0  0  0  0
    0.2131    2.0786   -0.0520 C   0  0  0  0  0  0
    2.2817   -2.5535    0.4769 H   0  0  0  0  0  0
    0.8766   -3.1992    1.3394 H   0  0  0  0  0  0
    1.2671   -3.7742   -0.2957 H   0  0  0  0  0  0
    0.7837   -1.4711   -1.1949 H   0  0  0  0  0  0
    0.4938   -0.9019    0.4205 H   0  0  0  0  0  0
   -1.4336   -2.3731    0.7134 H   0  0  0  0  0  0
   -2.4998   -3.4916   -1.2370 H   0  0  0  0  0  0
   -1.0002   -4.2662   -0.7448 H   0  0  0  0  0  0
   -1.1891   -4.1112   -3.2044 H   0  0  0  0  0  0
   -1.3196   -2.3462   -3.1156 H   0  0  0  0  0  0
    0.1883   -3.1637   -2.6514 H   0  0  0  0  0  0
   -3.4443   -1.8940    1.1129 H   0  0  0  0  0  0
   -4.9530   -0.4235    2.3950 H   0  0  0  0  0  0
   -3.6065    2.9759    0.1709 H   0  0  0  0  0  0
   -2.0558    1.1787   -2.2123 H   0  0  0  0  0  0
   -0.2169    1.8886   -3.4189 H   0  0  0  0  0  0
    2.2161    2.3132   -3.3617 H   0  0  0  0  0  0
    2.7370   -0.3334    1.3916 H   0  0  0  0  0  0
    4.4848    0.0139    1.5338 H   0  0  0  0  0  0
    3.6127    0.4742    0.0677 H   0  0  0  0  0  0
    2.9609    1.1209    3.7662 H   0  0  0  0  0  0
    3.4540    2.8121    3.5219 H   0  0  0  0  0  0
    4.6354    1.5086    3.2909 H   0  0  0  0  0  0
   -0.3429    2.0693    0.8814 H   0  0  0  0  0  0
  1  2  1  0  0  0
  1 27  1  0  0  0
  1 28  1  0  0  0
  1 29  1  0  0  0
  2  3  1  0  0  0
  2 30  1  0  0  0
  2 31  1  0  0  0
  3  4  1  0  0  0
  3  6  1  0  0  0
  3 32  1  0  0  0
  4  5  1  0  0  0
  4 33  1  0  0  0
  4 34  1  0  0  0
  5 35  1  0  0  0
  5 36  1  0  0  0
  5 37  1  0  0  0
  6  7  1  0  0  0
  7  8  2  0  0  0
  7 13  1  0  0  0
  8  9  1  0  0  0
  8 38  1  0  0  0
  9 10  2  0  0  0
  9 39  1  0  0  0
 10 11  1  0  0  0
 10 12  1  0  0  0
 12 13  2  0  0  0
 12 40  1  0  0  0
 13 14  1  0  0  0
 14 15  1  0  0  0
 14 41  1  0  0  0
 15 16  2  0  0  0
 15 26  1  0  0  0
 16 17  1  0  0  0
 16 42  1  0  0  0
 17 18  2  0  0  0
 17 43  1  0  0  0
 18 19  1  0  0  0
 18 20  1  0  0  0
 20 21  1  0  0  0
 20 26  2  0  0  0
 21 22  2  0  0  0
 21 23  1  0  0  0
 23 24  1  0  0  0
 23 25  1  0  0  0
 24 44  1  0  0  0
 24 45  1  0  0  0
 24 46  1  0  0  0
 25 47  1  0  0  0
 25 48  1  0  0  0
 25 49  1  0  0  0
 26 50  1  0  0  0
M  END
> <energy>
44.8671

> <i_ionizer_Ion_state_n>
0

> <i_ionizer_Tot_Q>
0

> <s_ionizer_Ion_centers>


> <s_ionizer_Ion_types>


> <s_ionizer_Ion_ctrs_in>


> <r_ionizer_Ionization_penalty>
0

> <r_ionizer_Ionization_penalty_charging>
0

> <r_ionizer_Ionization_penalty_neutral>
0

$$$$
ZINC001211863669
                    3D
 Schrodinger Suite 2019-4.
 46 49  0  0  1  0            999 V2000
   -1.2226    4.5661    0.4744 C   0  0  0  0  0  0
   -0.1173    4.8136    1.4686 C   0  0  0  0  0  0
   -0.1562    5.7703    2.2412 O   0  0  0  0  0  0
    1.0367    3.8700    1.5141 C   0  0  0  0  0  0
    1.8981    3.9058    2.6178 C   0  0  0  0  0  0
    2.9400    2.9820    2.7277 C   0  0  0  0  0  0
    3.1343    2.0199    1.7321 C   0  0  0  0  0  0
    2.3026    1.9973    0.6069 C   0  0  0  0  0  0
    2.4380    0.9702   -0.4113 C   0  0  0  0  0  0
    2.3078    1.2125   -1.7253 N   0  0  0  0  0  0
    2.1767   -0.0580   -2.2800 O   0  0  0  0  0  0
    2.2397   -0.9399   -1.2409 C   0  0  0  0  0  0
    1.8002   -2.3318   -1.5277 C   0  0  0  0  0  0
    0.2944   -2.4531   -1.3262 C   0  0  0  0  0  0
   -0.5795   -2.3571   -2.4213 C   0  0  0  0  0  0
   -0.1006   -2.2865   -3.8466 C   0  0  0  0  0  0
   -1.9255   -2.2869   -2.2854 N   0  0  0  0  0  0
   -2.4661   -2.2713   -1.0609 C   0  0  0  0  0  0
   -3.8438   -2.1182   -0.9585 C   0  0  0  0  0  0
   -4.4934   -2.0516    0.2745 C   0  0  0  0  0  0
   -3.7528   -2.1565    1.4413 C   0  0  0  0  0  0
   -2.3698   -2.3268    1.3614 C   0  0  0  0  0  0
   -1.6960   -2.3828    0.1138 C   0  0  0  0  0  0
   -0.2836   -2.5118   -0.0292 C   0  0  0  0  0  0
    0.5672   -2.6223    1.2179 C   0  0  0  0  0  0
    2.4972   -0.3654   -0.0860 N   0  0  0  0  0  0
    1.2596    2.9328    0.4989 C   0  0  0  0  0  0
   -1.5355    3.5176    0.4960 H   0  0  0  0  0  0
   -2.0930    5.1718    0.7452 H   0  0  0  0  0  0
   -0.8944    4.8512   -0.5283 H   0  0  0  0  0  0
    1.7486    4.6417    3.4079 H   0  0  0  0  0  0
    3.5863    3.0019    3.6015 H   0  0  0  0  0  0
    3.9343    1.2893    1.8438 H   0  0  0  0  0  0
    2.0875   -2.6070   -2.5479 H   0  0  0  0  0  0
    2.3347   -3.0457   -0.8941 H   0  0  0  0  0  0
    0.5111   -1.3932   -4.0054 H   0  0  0  0  0  0
   -0.9503   -2.2292   -4.5370 H   0  0  0  0  0  0
    0.4729   -3.1839   -4.1005 H   0  0  0  0  0  0
   -4.4287   -2.0313   -1.8711 H   0  0  0  0  0  0
   -5.5694   -1.9132    0.3177 H   0  0  0  0  0  0
   -4.2413   -2.1061    2.4093 H   0  0  0  0  0  0
   -1.8170   -2.3950    2.2953 H   0  0  0  0  0  0
    0.6028   -1.6600    1.7381 H   0  0  0  0  0  0
    1.5928   -2.9363    1.0209 H   0  0  0  0  0  0
    0.1619   -3.3865    1.8922 H   0  0  0  0  0  0
    0.6116    2.8934   -0.3747 H   0  0  0  0  0  0
  1  2  1  0  0  0
  1 28  1  0  0  0
  1 29  1  0  0  0
  1 30  1  0  0  0
  2  3  2  0  0  0
  2  4  1  0  0  0
  4  5  2  0  0  0
  4 27  1  0  0  0
  5  6  1  0  0  0
  5 31  1  0  0  0
  6  7  2  0  0  0
  6 32  1  0  0  0
  7  8  1  0  0  0
  7 33  1  0  0  0
  8  9  1  0  0  0
  8 27  2  0  0  0
  9 10  2  0  0  0
  9 26  1  0  0  0
 10 11  1  0  0  0
 11 12  1  0  0  0
 12 13  1  0  0  0
 12 26  2  0  0  0
 13 14  1  0  0  0
 13 34  1  0  0  0
 13 35  1  0  0  0
 14 15  1  0  0  0
 14 24  2  0  0  0
 15 16  1  0  0  0
 15 17  2  0  0  0
 16 36  1  0  0  0
 16 37  1  0  0  0
 16 38  1  0  0  0
 17 18  1  0  0  0
 18 19  1  0  0  0
 18 23  2  0  0  0
 19 20  2  0  0  0
 19 39  1  0  0  0
 20 21  1  0  0  0
 20 40  1  0  0  0
 21 22  2  0  0  0
 21 41  1  0  0  0
 22 23  1  0  0  0
 22 42  1  0  0  0
 23 24  1  0  0  0
 24 25  1  0  0  0
 25 43  1  0  0  0
 25 44  1  0  0  0
 25 45  1  0  0  0
 27 46  1  0  0  0
M  END
> <energy>
105.172

> <i_ionizer_Ion_state_n>
0

> <i_ionizer_Tot_Q>
0

> <s_ionizer_Ion_centers>


> <s_ionizer_Ion_types>


> <s_ionizer_Ion_ctrs_in>


> <r_ionizer_Ionization_penalty>
0.00741239

> <r_ionizer_Ionization_penalty_charging>
0

> <r_ionizer_Ionization_penalty_neutral>
0.00741239

$$$$
ZINC001211863695
                    3D
 Schrodinger Suite 2019-4.
 45 48  0  0  1  0            999 V2000
    5.7952   -3.1169    0.5870 C   0  0  0  0  0  0
    6.0925   -1.8005    0.1317 O   0  0  0  0  0  0
    5.0143   -0.9895   -0.0870 C   0  0  0  0  0  0
    5.2850    0.3800   -0.0601 C   0  0  0  0  0  0
    4.2569    1.3163   -0.2265 C   0  0  0  0  0  0
    2.9355    0.8908   -0.4225 C   0  0  0  0  0  0
    1.8409    1.8437   -0.5234 C   0  0  0  0  0  0
    1.9844    3.1622   -0.7466 N   0  0  0  0  0  0
    0.6706    3.6471   -0.7503 O   0  0  0  0  0  0
   -0.1345    2.5739   -0.5102 C   0  0  0  0  0  0
   -1.6042    2.8070   -0.4514 C   0  0  0  0  0  0
   -2.3824    1.5029   -0.3630 C   0  0  0  0  0  0
   -2.9302    0.9196   -1.5161 C   0  0  0  0  0  0
   -2.8543    1.5709   -2.8689 C   0  0  0  0  0  0
   -3.5602   -0.2793   -1.5149 N   0  0  0  0  0  0
   -3.6268   -0.9806   -0.3785 C   0  0  0  0  0  0
   -4.2313   -2.2305   -0.4188 C   0  0  0  0  0  0
   -4.3232   -3.0463    0.7103 C   0  0  0  0  0  0
   -3.8041   -2.6047    1.9152 C   0  0  0  0  0  0
   -3.2018   -1.3491    1.9819 C   0  0  0  0  0  0
   -3.1010   -0.5101    0.8426 C   0  0  0  0  0  0
   -2.4843    0.7732    0.8480 C   0  0  0  0  0  0
   -1.9012    1.2895    2.1456 C   0  0  0  0  0  0
    0.5369    1.4595   -0.3513 N   0  0  0  0  0  0
    2.6921   -0.4863   -0.4882 C   0  0  0  0  0  0
    1.4570   -0.9631   -0.7087 F   0  0  0  0  0  0
    3.7155   -1.4230   -0.3367 C   0  0  0  0  0  0
    5.0627   -3.1104    1.4021 H   0  0  0  0  0  0
    6.7201   -3.5513    0.9784 H   0  0  0  0  0  0
    5.4515   -3.7400   -0.2439 H   0  0  0  0  0  0
    6.3026    0.7206    0.1145 H   0  0  0  0  0  0
    4.4994    2.3755   -0.1794 H   0  0  0  0  0  0
   -1.8526    3.4506    0.4007 H   0  0  0  0  0  0
   -1.9106    3.3939   -1.3255 H   0  0  0  0  0  0
   -1.8138    1.7579   -3.1514 H   0  0  0  0  0  0
   -3.4124    2.5118   -2.8705 H   0  0  0  0  0  0
   -3.2937    0.9258   -3.6401 H   0  0  0  0  0  0
   -4.6309   -2.5869   -1.3656 H   0  0  0  0  0  0
   -4.7956   -4.0207    0.6384 H   0  0  0  0  0  0
   -3.8601   -3.2306    2.8028 H   0  0  0  0  0  0
   -2.7969   -1.0340    2.9396 H   0  0  0  0  0  0
   -1.0692    0.6493    2.4598 H   0  0  0  0  0  0
   -1.5190    2.3100    2.0888 H   0  0  0  0  0  0
   -2.6734    1.2952    2.9212 H   0  0  0  0  0  0
    3.4545   -2.4736   -0.4090 H   0  0  0  0  0  0
  1  2  1  0  0  0
  1 28  1  0  0  0
  1 29  1  0  0  0
  1 30  1  0  0  0
  2  3  1  0  0  0
  3  4  2  0  0  0
  3 27  1  0  0  0
  4  5  1  0  0  0
  4 31  1  0  0  0
  5  6  2  0  0  0
  5 32  1  0  0  0
  6  7  1  0  0  0
  6 25  1  0  0  0
  7  8  2  0  0  0
  7 24  1  0  0  0
  8  9  1  0  0  0
  9 10  1  0  0  0
 10 11  1  0  0  0
 10 24  2  0  0  0
 11 12  1  0  0  0
 11 33  1  0  0  0
 11 34  1  0  0  0
 12 13  1  0  0  0
 12 22  2  0  0  0
 13 14  1  0  0  0
 13 15  2  0  0  0
 14 35  1  0  0  0
 14 36  1  0  0  0
 14 37  1  0  0  0
 15 16  1  0  0  0
 16 17  1  0  0  0
 16 21  2  0  0  0
 17 18  2  0  0  0
 17 38  1  0  0  0
 18 19  1  0  0  0
 18 39  1  0  0  0
 19 20  2  0  0  0
 19 40  1  0  0  0
 20 21  1  0  0  0
 20 41  1  0  0  0
 21 22  1  0  0  0
 22 23  1  0  0  0
 23 42  1  0  0  0
 23 43  1  0  0  0
 23 44  1  0  0  0
 25 26  1  0  0  0
 25 27  2  0  0  0
 27 45  1  0  0  0
M  END
> <energy>
88.0903

> <i_ionizer_Ion_state_n>
0

> <i_ionizer_Tot_Q>
0

> <s_ionizer_Ion_centers>


> <s_ionizer_Ion_types>


> <s_ionizer_Ion_ctrs_in>


> <r_ionizer_Ionization_penalty>
0.00741239

> <r_ionizer_Ionization_penalty_charging>
0

> <r_ionizer_Ionization_penalty_neutral>
0.00741239

$$$$
ZINC001211863735
                    3D
 Schrodinger Suite 2019-4.
 38 42  0  0  1  0            999 V2000
    5.4760    1.7023    2.6462 O   0  0  0  0  0  0
    4.3554    1.3895    2.2947 C   0  0  0  0  0  0
    3.4019    0.4698    3.0326 C   0  0  0  0  0  0
    2.0515    0.6941    2.3318 C   0  0  2  0  0  0
    1.2237   -0.5126    2.0776 C   0  0  0  0  0  0
   -0.0633   -0.5249    1.8362 N   0  0  0  0  0  0
   -0.2195   -1.6854    1.1062 C   0  0  0  0  0  0
   -1.3807   -1.8748    0.2334 C   0  0  0  0  0  0
   -1.4115   -2.8903   -0.7116 C   0  0  0  0  0  0
   -2.4016   -2.8530   -1.6933 C   0  0  0  0  0  0
   -3.3531   -1.8271   -1.6903 C   0  0  0  0  0  0
   -4.3532   -1.7232   -2.6755 C   0  0  0  0  0  0
   -5.2862   -0.6879   -2.6243 C   0  0  0  0  0  0
   -5.2226    0.2484   -1.5974 C   0  0  0  0  0  0
   -4.2230    0.1460   -0.6288 C   0  0  0  0  0  0
   -3.2812   -0.8702   -0.6562 C   0  0  0  0  0  0
   -2.3154   -0.8915    0.2768 N   0  0  0  0  0  0
    0.8852   -2.4592    1.0939 N   0  0  0  0  0  0
    1.8510   -1.6698    1.7217 O   0  0  0  0  0  0
    2.4242    1.3783    1.0366 C   0  0  0  0  0  0
    1.6191    1.6159   -0.0735 C   0  0  0  0  0  0
    2.1620    2.2977   -1.1636 C   0  0  0  0  0  0
    3.4874    2.7533   -1.1217 C   0  0  0  0  0  0
    4.1217    3.6094   -2.4744 Cl  0  0  0  0  0  0
    4.2991    2.5208   -0.0093 C   0  0  0  0  0  0
    3.7380    1.8238    1.0449 C   0  0  0  0  0  0
    3.7767   -0.5530    2.9544 H   0  0  0  0  0  0
    3.3467    0.7591    4.0858 H   0  0  0  0  0  0
    1.4640    1.4106    2.9283 H   0  0  0  0  0  0
   -0.6549   -3.6667   -0.7270 H   0  0  0  0  0  0
   -2.4091   -3.6170   -2.4703 H   0  0  0  0  0  0
   -4.4040   -2.4436   -3.4873 H   0  0  0  0  0  0
   -6.0654   -0.6142   -3.3839 H   0  0  0  0  0  0
   -5.9405    1.0613   -1.5480 H   0  0  0  0  0  0
   -4.1634    0.8890    0.1655 H   0  0  0  0  0  0
    0.5856    1.2696   -0.1111 H   0  0  0  0  0  0
    1.5476    2.4709   -2.0432 H   0  0  0  0  0  0
    5.3317    2.8547    0.0243 H   0  0  0  0  0  0
  1  2  2  0  0  0
  2  3  1  0  0  0
  2 26  1  0  0  0
  3  4  1  0  0  0
  3 27  1  0  0  0
  3 28  1  0  0  0
  4  5  1  0  0  0
  4 20  1  0  0  0
  4 29  1  0  0  0
  5  6  2  0  0  0
  5 19  1  0  0  0
  6  7  1  0  0  0
  7  8  1  0  0  0
  7 18  2  0  0  0
  8  9  1  0  0  0
  8 17  2  0  0  0
  9 10  2  0  0  0
  9 30  1  0  0  0
 10 11  1  0  0  0
 10 31  1  0  0  0
 11 12  1  0  0  0
 11 16  2  0  0  0
 12 13  2  0  0  0
 12 32  1  0  0  0
 13 14  1  0  0  0
 13 33  1  0  0  0
 14 15  2  0  0  0
 14 34  1  0  0  0
 15 16  1  0  0  0
 15 35  1  0  0  0
 16 17  1  0  0  0
 18 19  1  0  0  0
 20 21  2  0  0  0
 20 26  1  0  0  0
 21 22  1  0  0  0
 21 36  1  0  0  0
 22 23  2  0  0  0
 22 37  1  0  0  0
 23 24  1  0  0  0
 23 25  1  0  0  0
 25 26  2  0  0  0
 25 38  1  0  0  0
M  END
> <energy>
108.561

> <i_ionizer_Ion_state_n>
0

> <i_ionizer_Tot_Q>
0

> <s_ionizer_Ion_centers>


> <s_ionizer_Ion_types>


> <s_ionizer_Ion_ctrs_in>


> <r_ionizer_Ionization_penalty>
0.00741239

> <r_ionizer_Ionization_penalty_charging>
0

> <r_ionizer_Ionization_penalty_neutral>
0.00741239

$$$$
ZINC001211863736
                    3D
 Schrodinger Suite 2019-4.
 38 42  0  0  1  0            999 V2000
    1.2110   -1.4537    4.0496 O   0  0  0  0  0  0
    1.8152   -0.7449    3.2643 C   0  0  0  0  0  0
    2.7615   -1.2063    2.1796 C   0  0  0  0  0  0
    3.0548    0.0684    1.3539 C   0  0  1  0  0  0
    2.3022    0.0618    0.0683 C   0  0  0  0  0  0
    1.0453   -0.2279   -0.1439 N   0  0  0  0  0  0
    0.9176   -0.0924   -1.5137 C   0  0  0  0  0  0
   -0.3480   -0.3714   -2.1973 C   0  0  0  0  0  0
   -0.5039   -0.2002   -3.5677 C   0  0  0  0  0  0
   -1.7399   -0.5088   -4.1400 C   0  0  0  0  0  0
   -2.7810   -1.0000   -3.3388 C   0  0  0  0  0  0
   -4.0376   -1.3620   -3.8618 C   0  0  0  0  0  0
   -5.0396   -1.8558   -3.0238 C   0  0  0  0  0  0
   -4.7976   -1.9732   -1.6589 C   0  0  0  0  0  0
   -3.5496   -1.6124   -1.1446 C   0  0  0  0  0  0
   -2.5329   -1.1347   -1.9578 C   0  0  0  0  0  0
   -1.3531   -0.8235   -1.4037 N   0  0  0  0  0  0
    2.0571    0.2920   -2.1200 N   0  0  0  0  0  0
    2.9771    0.3863   -1.0709 O   0  0  0  0  0  0
    2.5949    1.1808    2.2612 C   0  0  0  0  0  0
    2.8080    2.5443    2.1241 C   0  0  0  0  0  0
    2.2234    3.4102    3.0561 C   0  0  0  0  0  0
    1.4265    2.9120    4.1011 C   0  0  0  0  0  0
    0.7125    4.0133    5.2172 Cl  0  0  0  0  0  0
    1.2140    1.5437    4.2452 C   0  0  0  0  0  0
    1.8147    0.7113    3.3161 C   0  0  0  0  0  0
    3.6777   -1.5583    2.6694 H   0  0  0  0  0  0
    2.3195   -2.0182    1.5956 H   0  0  0  0  0  0
    4.1301    0.1432    1.1665 H   0  0  0  0  0  0
    0.3121    0.1612   -4.1852 H   0  0  0  0  0  0
   -1.8865   -0.3703   -5.2074 H   0  0  0  0  0  0
   -4.2407   -1.2701   -4.9266 H   0  0  0  0  0  0
   -6.0032   -2.1498   -3.4344 H   0  0  0  0  0  0
   -5.5715   -2.3500   -0.9952 H   0  0  0  0  0  0
   -3.3605   -1.7141   -0.0780 H   0  0  0  0  0  0
    3.3929    2.9464    1.3031 H   0  0  0  0  0  0
    2.3720    4.4824    2.9500 H   0  0  0  0  0  0
    0.6055    1.1408    5.0480 H   0  0  0  0  0  0
  1  2  2  0  0  0
  2  3  1  0  0  0
  2 26  1  0  0  0
  3  4  1  0  0  0
  3 27  1  0  0  0
  3 28  1  0  0  0
  4  5  1  0  0  0
  4 20  1  0  0  0
  4 29  1  0  0  0
  5  6  2  0  0  0
  5 19  1  0  0  0
  6  7  1  0  0  0
  7  8  1  0  0  0
  7 18  2  0  0  0
  8  9  1  0  0  0
  8 17  2  0  0  0
  9 10  2  0  0  0
  9 30  1  0  0  0
 10 11  1  0  0  0
 10 31  1  0  0  0
 11 12  1  0  0  0
 11 16  2  0  0  0
 12 13  2  0  0  0
 12 32  1  0  0  0
 13 14  1  0  0  0
 13 33  1  0  0  0
 14 15  2  0  0  0
 14 34  1  0  0  0
 15 16  1  0  0  0
 15 35  1  0  0  0
 16 17  1  0  0  0
 18 19  1  0  0  0
 20 21  2  0  0  0
 20 26  1  0  0  0
 21 22  1  0  0  0
 21 36  1  0  0  0
 22 23  2  0  0  0
 22 37  1  0  0  0
 23 24  1  0  0  0
 23 25  1  0  0  0
 25 26  2  0  0  0
 25 38  1  0  0  0
M  END
> <energy>
98.9135

> <i_ionizer_Ion_state_n>
0

> <i_ionizer_Tot_Q>
0

> <s_ionizer_Ion_centers>


> <s_ionizer_Ion_types>


> <s_ionizer_Ion_ctrs_in>


> <r_ionizer_Ionization_penalty>
0.00741239

> <r_ionizer_Ionization_penalty_charging>
0

> <r_ionizer_Ionization_penalty_neutral>
0.00741239

$$$$
ZINC001211863820
                    3D
 Schrodinger Suite 2019-4.
 38 39  0  0  1  0            999 V2000
   -3.0403   -1.0578    1.9176 C   0  0  0  0  0  0
   -2.2396   -1.2864    0.7606 O   0  0  0  0  0  0
   -2.6699   -0.5355   -0.3029 C   0  0  0  0  0  0
   -3.4034   -1.2069   -1.2851 C   0  0  0  0  0  0
   -3.8407   -0.5220   -2.4171 C   0  0  0  0  0  0
   -4.7415   -1.4125   -3.5926 Cl  0  0  0  0  0  0
   -3.5387    0.8351   -2.5638 C   0  0  0  0  0  0
   -4.0424    1.7463   -3.9430 Cl  0  0  0  0  0  0
   -2.8017    1.5059   -1.5783 C   0  0  0  0  0  0
   -2.3486    0.8286   -0.4367 C   0  0  0  0  0  0
   -1.5310    1.5198    0.4810 N   0  0  0  0  0  0
   -0.2725    1.1549    1.0000 C   0  0  0  0  0  0
    0.1824    1.8003    2.1614 C   0  0  0  0  0  0
    1.3945    1.4406    2.7584 C   0  0  0  0  0  0
    2.1741    0.4427    2.1852 C   0  0  0  0  0  0
    3.3449    0.1237    2.7552 F   0  0  0  0  0  0
    1.7470   -0.1904    1.0249 C   0  0  0  0  0  0
    2.5856   -1.2184    0.3941 C   0  0  0  0  0  0
    2.3835   -2.3841    0.7190 O   0  0  0  0  0  0
    3.5171   -0.8141   -0.5637 N   0  0  0  0  0  0
    3.7604    0.5633   -0.9669 C   0  0  0  0  0  0
    4.2248   -1.8330   -1.3225 C   0  0  0  0  0  0
    0.5132    0.1362    0.4474 C   0  0  0  0  0  0
   -3.0834    0.0026    2.1914 H   0  0  0  0  0  0
   -4.0520   -1.4547    1.7728 H   0  0  0  0  0  0
   -2.5827   -1.5995    2.7516 H   0  0  0  0  0  0
   -3.6244   -2.2620   -1.1547 H   0  0  0  0  0  0
   -2.5608    2.5589   -1.7177 H   0  0  0  0  0  0
   -1.6786    2.5231    0.5002 H   0  0  0  0  0  0
   -0.4237    2.5756    2.6258 H   0  0  0  0  0  0
    1.7305    1.9303    3.6670 H   0  0  0  0  0  0
    3.2752    0.7373   -1.9326 H   0  0  0  0  0  0
    4.8385    0.7172   -1.0739 H   0  0  0  0  0  0
    3.3842    1.2885   -0.2445 H   0  0  0  0  0  0
    5.3014   -1.6637   -1.2166 H   0  0  0  0  0  0
    3.9858   -2.8480   -0.9873 H   0  0  0  0  0  0
    3.9429   -1.7388   -2.3766 H   0  0  0  0  0  0
    0.1899   -0.4031   -0.4372 H   0  0  0  0  0  0
  1  2  1  0  0  0
  1 24  1  0  0  0
  1 25  1  0  0  0
  1 26  1  0  0  0
  2  3  1  0  0  0
  3  4  2  0  0  0
  3 10  1  0  0  0
  4  5  1  0  0  0
  4 27  1  0  0  0
  5  6  1  0  0  0
  5  7  2  0  0  0
  7  8  1  0  0  0
  7  9  1  0  0  0
  9 10  2  0  0  0
  9 28  1  0  0  0
 10 11  1  0  0  0
 11 12  1  0  0  0
 11 29  1  0  0  0
 12 13  2  0  0  0
 12 23  1  0  0  0
 13 14  1  0  0  0
 13 30  1  0  0  0
 14 15  2  0  0  0
 14 31  1  0  0  0
 15 16  1  0  0  0
 15 17  1  0  0  0
 17 18  1  0  0  0
 17 23  2  0  0  0
 18 19  2  0  0  0
 18 20  1  0  0  0
 20 21  1  0  0  0
 20 22  1  0  0  0
 21 32  1  0  0  0
 21 33  1  0  0  0
 21 34  1  0  0  0
 22 35  1  0  0  0
 22 36  1  0  0  0
 22 37  1  0  0  0
 23 38  1  0  0  0
M  END
> <energy>
49.7707

> <i_ionizer_Ion_state_n>
0

> <i_ionizer_Tot_Q>
0

> <s_ionizer_Ion_centers>


> <s_ionizer_Ion_types>


> <s_ionizer_Ion_ctrs_in>


> <r_ionizer_Ionization_penalty>
0

> <r_ionizer_Ionization_penalty_charging>
0

> <r_ionizer_Ionization_penalty_neutral>
0

$$$$
ZINC001211863826
                    3D
 Schrodinger Suite 2019-4.
 50 51  0  0  1  0            999 V2000
   -1.8886   -2.5306   -1.2517 C   0  0  0  0  0  0
   -1.5379   -1.2304   -0.5475 C   0  0  0  0  0  0
   -2.7188   -0.5780    0.2010 C   0  0  0  0  0  0
   -3.8290   -0.1510   -0.7795 C   0  0  0  0  0  0
   -4.9933    0.5554   -0.0939 C   0  0  0  0  0  0
   -2.2684    0.6148    0.8707 O   0  0  0  0  0  0
   -1.4006    0.4530    1.9256 C   0  0  0  0  0  0
   -1.5275   -0.5492    2.8927 C   0  0  0  0  0  0
   -0.5978   -0.6373    3.9322 C   0  0  0  0  0  0
    0.4473    0.2802    4.0140 C   0  0  0  0  0  0
    0.5630    1.2855    3.0567 C   0  0  0  0  0  0
    1.5940    2.1388    3.1509 F   0  0  0  0  0  0
   -0.3589    1.4001    2.0103 C   0  0  0  0  0  0
   -0.2074    2.3629    0.9637 N   0  0  0  0  0  0
    0.6106    2.1292   -0.1782 C   0  0  0  0  0  0
    0.2252    2.6654   -1.4191 C   0  0  0  0  0  0
    0.9953    2.4524   -2.5698 C   0  0  0  0  0  0
    2.1772    1.7256   -2.4809 C   0  0  0  0  0  0
    2.8949    1.5075   -3.5919 F   0  0  0  0  0  0
    2.5903    1.2301   -1.2514 C   0  0  0  0  0  0
    3.8489    0.4871   -1.1341 C   0  0  0  0  0  0
    4.8828    1.1426   -1.0292 O   0  0  0  0  0  0
    3.7885   -0.9034   -1.0763 N   0  0  0  0  0  0
    2.5563   -1.6726   -1.1686 C   0  0  0  0  0  0
    4.9829   -1.6370   -0.6925 C   0  0  0  0  0  0
    1.8292    1.4496   -0.0970 C   0  0  0  0  0  0
   -2.5822   -2.3697   -2.0809 H   0  0  0  0  0  0
   -2.3356   -3.2461   -0.5552 H   0  0  0  0  0  0
   -0.9827   -2.9848   -1.6656 H   0  0  0  0  0  0
   -0.7224   -1.4385    0.1554 H   0  0  0  0  0  0
   -1.1188   -0.5220   -1.2738 H   0  0  0  0  0  0
   -3.1603   -1.2831    0.9139 H   0  0  0  0  0  0
   -4.2277   -1.0251   -1.3048 H   0  0  0  0  0  0
   -3.4165    0.5287   -1.5347 H   0  0  0  0  0  0
   -5.4823   -0.1073    0.6257 H   0  0  0  0  0  0
   -5.7376    0.8548   -0.8394 H   0  0  0  0  0  0
   -4.6683    1.4595    0.4297 H   0  0  0  0  0  0
   -2.3384   -1.2685    2.8659 H   0  0  0  0  0  0
   -0.6904   -1.4212    4.6801 H   0  0  0  0  0  0
    1.1773    0.2208    4.8163 H   0  0  0  0  0  0
   -1.1526    2.5683    0.6310 H   0  0  0  0  0  0
   -0.6903    3.2460   -1.5067 H   0  0  0  0  0  0
    0.6814    2.8490   -3.5295 H   0  0  0  0  0  0
    2.7628   -2.6262   -1.6639 H   0  0  0  0  0  0
    2.1778   -1.8539   -0.1585 H   0  0  0  0  0  0
    1.7928   -1.1466   -1.7455 H   0  0  0  0  0  0
    5.8767   -1.0088   -0.7040 H   0  0  0  0  0  0
    5.1288   -2.4709   -1.3839 H   0  0  0  0  0  0
    4.8447   -2.0280    0.3209 H   0  0  0  0  0  0
    2.2058    1.0830    0.8514 H   0  0  0  0  0  0
  1  2  1  0  0  0
  1 27  1  0  0  0
  1 28  1  0  0  0
  1 29  1  0  0  0
  2  3  1  0  0  0
  2 30  1  0  0  0
  2 31  1  0  0  0
  3  4  1  0  0  0
  3  6  1  0  0  0
  3 32  1  0  0  0
  4  5  1  0  0  0
  4 33  1  0  0  0
  4 34  1  0  0  0
  5 35  1  0  0  0
  5 36  1  0  0  0
  5 37  1  0  0  0
  6  7  1  0  0  0
  7  8  2  0  0  0
  7 13  1  0  0  0
  8  9  1  0  0  0
  8 38  1  0  0  0
  9 10  2  0  0  0
  9 39  1  0  0  0
 10 11  1  0  0  0
 10 40  1  0  0  0
 11 12  1  0  0  0
 11 13  2  0  0  0
 13 14  1  0  0  0
 14 15  1  0  0  0
 14 41  1  0  0  0
 15 16  2  0  0  0
 15 26  1  0  0  0
 16 17  1  0  0  0
 16 42  1  0  0  0
 17 18  2  0  0  0
 17 43  1  0  0  0
 18 19  1  0  0  0
 18 20  1  0  0  0
 20 21  1  0  0  0
 20 26  2  0  0  0
 21 22  2  0  0  0
 21 23  1  0  0  0
 23 24  1  0  0  0
 23 25  1  0  0  0
 24 44  1  0  0  0
 24 45  1  0  0  0
 24 46  1  0  0  0
 25 47  1  0  0  0
 25 48  1  0  0  0
 25 49  1  0  0  0
 26 50  1  0  0  0
M  END
> <energy>
63.7057

> <i_ionizer_Ion_state_n>
0

> <i_ionizer_Tot_Q>
0

> <s_ionizer_Ion_centers>


> <s_ionizer_Ion_types>


> <s_ionizer_Ion_ctrs_in>


> <r_ionizer_Ionization_penalty>
0

> <r_ionizer_Ionization_penalty_charging>
0

> <r_ionizer_Ionization_penalty_neutral>
0

$$$$
ZINC001211863844
                    3D
 Schrodinger Suite 2019-4.
 49 52  0  0  1  0            999 V2000
   -5.0790   -2.4833    0.9076 C   0  0  0  0  0  0
   -4.3175   -1.3870    0.2127 C   0  0  0  0  0  0
   -5.1031   -0.5403   -0.4965 N   0  0  0  0  0  0
   -4.5426    0.4623   -1.1815 C   0  0  0  0  0  0
   -5.3753    1.3363   -1.8655 C   0  0  0  0  0  0
   -4.8748    2.4075   -2.6077 C   0  0  0  0  0  0
   -3.5080    2.6178   -2.6599 C   0  0  0  0  0  0
   -2.6529    1.7551   -1.9823 C   0  0  0  0  0  0
   -3.1479    0.6502   -1.2427 C   0  0  0  0  0  0
   -2.3256   -0.2904   -0.5545 C   0  0  0  0  0  0
   -0.8253   -0.2043   -0.7282 C   0  0  0  0  0  0
   -2.9197   -1.2777    0.2741 C   0  0  0  0  0  0
   -2.1090   -2.2253    1.1529 C   0  0  0  0  0  0
   -1.0329   -1.5719    1.9490 C   0  0  0  0  0  0
    0.2627   -1.7536    1.8400 N   0  0  0  0  0  0
    0.7698   -0.5959    2.3858 C   0  0  0  0  0  0
    2.0986   -0.1478    1.9945 C   0  0  0  0  0  0
    3.1051   -1.0900    1.7594 C   0  0  0  0  0  0
    4.2844   -0.7108    1.1118 C   0  0  0  0  0  0
    4.4720    0.5986    0.6562 C   0  0  0  0  0  0
    5.5495    0.9883   -0.1665 N   0  0  0  0  0  0
    5.0833    1.2067   -1.5425 C   0  0  0  0  0  0
    6.7635    0.1753   -0.0796 C   0  0  0  0  0  0
    3.4906    1.5515    0.9802 C   0  0  0  0  0  0
    2.3186    1.1895    1.6551 C   0  0  0  0  0  0
   -0.1493    0.1587    3.0094 N   0  0  0  0  0  0
   -1.3582   -0.4917    2.7182 O   0  0  0  0  0  0
   -6.1360   -2.4689    0.6177 H   0  0  0  0  0  0
   -5.0282   -2.3536    1.9908 H   0  0  0  0  0  0
   -4.6761   -3.4600    0.6236 H   0  0  0  0  0  0
   -6.4467    1.1762   -1.8282 H   0  0  0  0  0  0
   -5.5526    3.0639   -3.1428 H   0  0  0  0  0  0
   -3.0990    3.4496   -3.2285 H   0  0  0  0  0  0
   -1.5874    1.9633   -2.0267 H   0  0  0  0  0  0
   -0.5441    0.0994   -1.7411 H   0  0  0  0  0  0
   -0.4028    0.5210   -0.0259 H   0  0  0  0  0  0
   -0.3479   -1.1788   -0.6064 H   0  0  0  0  0  0
   -2.7391   -2.7741    1.8604 H   0  0  0  0  0  0
   -1.6493   -2.9766    0.4973 H   0  0  0  0  0  0
    2.9469   -2.1341    2.0154 H   0  0  0  0  0  0
    5.0115   -1.4912    0.9194 H   0  0  0  0  0  0
    4.6720    0.2850   -1.9728 H   0  0  0  0  0  0
    5.9109    1.5381   -2.1791 H   0  0  0  0  0  0
    4.3121    1.9842   -1.5911 H   0  0  0  0  0  0
    7.1681    0.1782    0.9412 H   0  0  0  0  0  0
    6.5879   -0.8576   -0.3957 H   0  0  0  0  0  0
    7.5431    0.5815   -0.7325 H   0  0  0  0  0  0
    3.6274    2.5857    0.6733 H   0  0  0  0  0  0
    1.5522    1.9412    1.8321 H   0  0  0  0  0  0
  1  2  1  0  0  0
  1 28  1  0  0  0
  1 29  1  0  0  0
  1 30  1  0  0  0
  2  3  2  0  0  0
  2 12  1  0  0  0
  3  4  1  0  0  0
  4  5  2  0  0  0
  4  9  1  0  0  0
  5  6  1  0  0  0
  5 31  1  0  0  0
  6  7  2  0  0  0
  6 32  1  0  0  0
  7  8  1  0  0  0
  7 33  1  0  0  0
  8  9  2  0  0  0
  8 34  1  0  0  0
  9 10  1  0  0  0
 10 11  1  0  0  0
 10 12  2  0  0  0
 11 35  1  0  0  0
 11 36  1  0  0  0
 11 37  1  0  0  0
 12 13  1  0  0  0
 13 14  1  0  0  0
 13 38  1  0  0  0
 13 39  1  0  0  0
 14 15  2  0  0  0
 14 27  1  0  0  0
 15 16  1  0  0  0
 16 17  1  0  0  0
 16 26  2  0  0  0
 17 18  2  0  0  0
 17 25  1  0  0  0
 18 19  1  0  0  0
 18 40  1  0  0  0
 19 20  2  0  0  0
 19 41  1  0  0  0
 20 21  1  0  0  0
 20 24  1  0  0  0
 21 22  1  0  0  0
 21 23  1  0  0  0
 22 42  1  0  0  0
 22 43  1  0  0  0
 22 44  1  0  0  0
 23 45  1  0  0  0
 23 46  1  0  0  0
 23 47  1  0  0  0
 24 25  2  0  0  0
 24 48  1  0  0  0
 25 49  1  0  0  0
 26 27  1  0  0  0
M  END
> <energy>
101.385

> <i_ionizer_Ion_state_n>
0

> <i_ionizer_Tot_Q>
0

> <s_ionizer_Ion_centers>


> <s_ionizer_Ion_types>


> <s_ionizer_Ion_ctrs_in>


> <r_ionizer_Ionization_penalty>
0.00296205

> <r_ionizer_Ionization_penalty_charging>
0

> <r_ionizer_Ionization_penalty_neutral>
0.00296205

$$$$
ZINC001211863867
                    3D
 Schrodinger Suite 2019-4.
 37 38  0  0  1  0            999 V2000
   -2.4629   -0.7790   -0.9145 C   0  0  0  0  0  0
   -3.1328    0.2082   -0.0789 N   0  0  0  0  0  0
   -4.3910   -0.2064    0.5215 C   0  0  0  0  0  0
   -2.6855    1.5133    0.1307 C   0  0  0  0  0  0
   -3.3342    2.3707    0.7220 O   0  0  0  0  0  0
   -1.3304    1.8789   -0.3197 C   0  0  0  0  0  0
   -0.2212    1.2064    0.2099 C   0  0  0  0  0  0
    1.0769    1.5539   -0.1838 C   0  0  0  0  0  0
    2.2308    0.9075    0.3412 N   0  0  0  0  0  0
    2.2312   -0.4206    0.8486 C   0  0  0  0  0  0
    1.7863   -0.6204    2.1685 C   0  0  0  0  0  0
    1.6447   -1.9022    2.6916 C   0  0  0  0  0  0
    1.9311   -3.0022    1.8929 C   0  0  0  0  0  0
    2.3662   -2.8219    0.5754 C   0  0  0  0  0  0
    2.6269   -4.2565   -0.3537 Cl  0  0  0  0  0  0
    2.5381   -1.5348    0.0359 C   0  0  0  0  0  0
    2.9755   -1.3600   -1.3934 C   0  0  0  0  0  0
    1.9720   -1.5973   -2.2841 F   0  0  0  0  0  0
    4.0136   -2.1634   -1.7585 F   0  0  0  0  0  0
    3.4198   -0.0950   -1.6766 F   0  0  0  0  0  0
    1.2412    2.6385   -1.0617 C   0  0  0  0  0  0
    0.1330    3.3121   -1.5861 C   0  0  0  0  0  0
   -1.1503    2.9285   -1.2113 C   0  0  0  0  0  0
   -2.1961    3.5798   -1.7384 F   0  0  0  0  0  0
   -3.2048   -1.2738   -1.5492 H   0  0  0  0  0  0
   -1.7101   -0.3275   -1.5645 H   0  0  0  0  0  0
   -1.9894   -1.5227   -0.2653 H   0  0  0  0  0  0
   -5.1112   -0.4109   -0.2758 H   0  0  0  0  0  0
   -4.8045    0.5564    1.1863 H   0  0  0  0  0  0
   -4.2213   -1.1196    1.0983 H   0  0  0  0  0  0
   -0.3940    0.4144    0.9315 H   0  0  0  0  0  0
    3.0116    1.0520   -0.3053 H   0  0  0  0  0  0
    1.5344    0.2393    2.7888 H   0  0  0  0  0  0
    1.2991   -2.0408    3.7140 H   0  0  0  0  0  0
    1.8053   -4.0035    2.2989 H   0  0  0  0  0  0
    2.2377    2.9636   -1.3533 H   0  0  0  0  0  0
    0.2644    4.1348   -2.2819 H   0  0  0  0  0  0
  1  2  1  0  0  0
  1 25  1  0  0  0
  1 26  1  0  0  0
  1 27  1  0  0  0
  2  3  1  0  0  0
  2  4  1  0  0  0
  3 28  1  0  0  0
  3 29  1  0  0  0
  3 30  1  0  0  0
  4  5  2  0  0  0
  4  6  1  0  0  0
  6  7  2  0  0  0
  6 23  1  0  0  0
  7  8  1  0  0  0
  7 31  1  0  0  0
  8  9  1  0  0  0
  8 21  2  0  0  0
  9 10  1  0  0  0
  9 32  1  0  0  0
 10 11  2  0  0  0
 10 16  1  0  0  0
 11 12  1  0  0  0
 11 33  1  0  0  0
 12 13  2  0  0  0
 12 34  1  0  0  0
 13 14  1  0  0  0
 13 35  1  0  0  0
 14 15  1  0  0  0
 14 16  2  0  0  0
 16 17  1  0  0  0
 17 18  1  0  0  0
 17 19  1  0  0  0
 17 20  1  0  0  0
 21 22  1  0  0  0
 21 36  1  0  0  0
 22 23  2  0  0  0
 22 37  1  0  0  0
 23 24  1  0  0  0
M  END
> <energy>
30.6917

> <i_ionizer_Ion_state_n>
0

> <i_ionizer_Tot_Q>
0

> <s_ionizer_Ion_centers>


> <s_ionizer_Ion_types>


> <s_ionizer_Ion_ctrs_in>


> <r_ionizer_Ionization_penalty>
0

> <r_ionizer_Ionization_penalty_charging>
0

> <r_ionizer_Ionization_penalty_neutral>
0

$$$$
ZINC001211863880
                    3D
 Schrodinger Suite 2019-4.
 48 51  0  0  1  0            999 V2000
    4.3746    3.0355   -0.9819 C   0  0  0  0  0  0
    4.2787    3.1757    0.5316 C   0  0  0  0  0  0
    4.8274    2.0318    1.1984 O   0  0  0  0  0  0
    4.0095    0.9383    1.1639 C   0  0  0  0  0  0
    2.7488    0.9268    1.7548 C   0  0  0  0  0  0
    1.9438   -0.2070    1.6340 C   0  0  0  0  0  0
    2.4040   -1.3399    0.9399 C   0  0  0  0  0  0
    1.4680   -2.4048    0.6110 C   0  0  0  0  0  0
    1.7805   -3.5498   -0.0236 N   0  0  0  0  0  0
    0.5461   -4.0015   -0.5072 O   0  0  0  0  0  0
   -0.3794   -3.0935   -0.0857 C   0  0  0  0  0  0
   -1.7076   -3.0979   -0.7577 C   0  0  0  0  0  0
   -2.2652   -1.6798   -0.8240 C   0  0  0  0  0  0
   -1.7428   -0.7754   -1.7672 C   0  0  0  0  0  0
   -0.7558   -1.1886   -2.8253 C   0  0  0  0  0  0
   -2.0253    0.5481   -1.7613 N   0  0  0  0  0  0
   -2.8008    1.0442   -0.7928 C   0  0  0  0  0  0
   -3.0051    2.4199   -0.7821 C   0  0  0  0  0  0
   -3.8098    3.0369    0.1744 C   0  0  0  0  0  0
   -4.4014    2.2705    1.1638 C   0  0  0  0  0  0
   -4.1907    0.8906    1.1811 C   0  0  0  0  0  0
   -3.4020    0.2415    0.1974 C   0  0  0  0  0  0
   -3.1577   -1.1649    0.1488 C   0  0  0  0  0  0
   -3.8005   -2.0597    1.1869 C   0  0  0  0  0  0
    0.1205   -2.1771    0.7051 N   0  0  0  0  0  0
    3.7152   -1.3543    0.4464 C   0  0  0  0  0  0
    4.5141   -0.2144    0.5595 C   0  0  0  0  0  0
    5.3879    2.7522   -1.2781 H   0  0  0  0  0  0
    4.1128    3.9733   -1.4843 H   0  0  0  0  0  0
    3.7009    2.2567   -1.3512 H   0  0  0  0  0  0
    3.2560    3.3988    0.8528 H   0  0  0  0  0  0
    4.8943    4.0253    0.8419 H   0  0  0  0  0  0
    2.3766    1.7900    2.2935 H   0  0  0  0  0  0
    0.9335   -0.1863    2.0482 H   0  0  0  0  0  0
   -1.6074   -3.5026   -1.7719 H   0  0  0  0  0  0
   -2.3683   -3.7999   -0.2504 H   0  0  0  0  0  0
   -1.1248   -2.0432   -3.4028 H   0  0  0  0  0  0
   -0.5828   -0.3695   -3.5341 H   0  0  0  0  0  0
    0.2106   -1.4390   -2.3744 H   0  0  0  0  0  0
   -2.5133    3.0254   -1.5403 H   0  0  0  0  0  0
   -3.9558    4.1108    0.1447 H   0  0  0  0  0  0
   -5.0150    2.7405    1.9271 H   0  0  0  0  0  0
   -4.6404    0.3257    1.9900 H   0  0  0  0  0  0
   -3.8269   -3.1092    0.8874 H   0  0  0  0  0  0
   -3.2802   -1.9787    2.1450 H   0  0  0  0  0  0
   -4.8567   -1.7955    1.3218 H   0  0  0  0  0  0
    4.1006   -2.2238   -0.0792 H   0  0  0  0  0  0
    5.5114   -0.2021    0.1260 H   0  0  0  0  0  0
  1  2  1  0  0  0
  1 28  1  0  0  0
  1 29  1  0  0  0
  1 30  1  0  0  0
  2  3  1  0  0  0
  2 31  1  0  0  0
  2 32  1  0  0  0
  3  4  1  0  0  0
  4  5  2  0  0  0
  4 27  1  0  0  0
  5  6  1  0  0  0
  5 33  1  0  0  0
  6  7  2  0  0  0
  6 34  1  0  0  0
  7  8  1  0  0  0
  7 26  1  0  0  0
  8  9  2  0  0  0
  8 25  1  0  0  0
  9 10  1  0  0  0
 10 11  1  0  0  0
 11 12  1  0  0  0
 11 25  2  0  0  0
 12 13  1  0  0  0
 12 35  1  0  0  0
 12 36  1  0  0  0
 13 14  1  0  0  0
 13 23  2  0  0  0
 14 15  1  0  0  0
 14 16  2  0  0  0
 15 37  1  0  0  0
 15 38  1  0  0  0
 15 39  1  0  0  0
 16 17  1  0  0  0
 17 18  1  0  0  0
 17 22  2  0  0  0
 18 19  2  0  0  0
 18 40  1  0  0  0
 19 20  1  0  0  0
 19 41  1  0  0  0
 20 21  2  0  0  0
 20 42  1  0  0  0
 21 22  1  0  0  0
 21 43  1  0  0  0
 22 23  1  0  0  0
 23 24  1  0  0  0
 24 44  1  0  0  0
 24 45  1  0  0  0
 24 46  1  0  0  0
 26 27  2  0  0  0
 26 47  1  0  0  0
 27 48  1  0  0  0
M  END
> <energy>
101.97

> <i_ionizer_Ion_state_n>
0

> <i_ionizer_Tot_Q>
0

> <s_ionizer_Ion_centers>


> <s_ionizer_Ion_types>


> <s_ionizer_Ion_ctrs_in>


> <r_ionizer_Ionization_penalty>
0.00741239

> <r_ionizer_Ionization_penalty_charging>
0

> <r_ionizer_Ionization_penalty_neutral>
0.00741239

$$$$
ZINC001211863901
                    3D
 Schrodinger Suite 2019-4.
 43 46  0  0  1  0            999 V2000
   -2.2908    1.3213    0.7420 C   0  0  0  0  0  0
   -3.5475    0.9258    0.0191 C   0  0  0  0  0  0
   -4.6213    1.7218    0.2968 N   0  0  0  0  0  0
   -5.7967    1.4399   -0.3103 C   0  0  0  0  0  0
   -5.9644    0.3899   -1.1914 C   0  0  0  0  0  0
   -7.4883    0.0867   -1.9210 Cl  0  0  0  0  0  0
   -4.8691   -0.4181   -1.4719 C   0  0  0  0  0  0
   -3.6239   -0.1667   -0.8645 C   0  0  0  0  0  0
   -2.4909   -1.0342   -1.1793 C   0  0  0  0  0  0
   -2.5590   -2.0663   -2.0407 N   0  0  0  0  0  0
   -1.2633   -2.5738   -2.0671 O   0  0  0  0  0  0
   -0.5309   -1.8046   -1.2157 C   0  0  0  0  0  0
    0.9187   -2.1165   -1.1146 C   0  0  0  0  0  0
    1.7358   -0.9876   -0.5110 C   0  0  0  0  0  0
    2.1496    0.0881   -1.3085 C   0  0  0  0  0  0
    1.8140    0.1878   -2.7700 C   0  0  0  0  0  0
    2.8746    1.1236   -0.8287 N   0  0  0  0  0  0
    3.2261    1.1368    0.4611 C   0  0  0  0  0  0
    3.9820    2.2118    0.9055 C   0  0  0  0  0  0
    4.4184    2.3135    2.2257 C   0  0  0  0  0  0
    4.0950    1.3143    3.1284 C   0  0  0  0  0  0
    3.3305    0.2263    2.7042 C   0  0  0  0  0  0
    2.8655    0.1181    1.3674 C   0  0  0  0  0  0
    2.0627   -0.9488    0.8681 C   0  0  0  0  0  0
    1.5930   -2.0489    1.7909 C   0  0  0  0  0  0
   -1.2409   -0.8661   -0.6347 N   0  0  0  0  0  0
   -2.4617    2.2151    1.3516 H   0  0  0  0  0  0
   -1.4930    1.5651    0.0341 H   0  0  0  0  0  0
   -1.9706    0.5238    1.4195 H   0  0  0  0  0  0
   -6.6167    2.1045   -0.0547 H   0  0  0  0  0  0
   -4.9865   -1.2471   -2.1674 H   0  0  0  0  0  0
    1.0541   -3.0418   -0.5453 H   0  0  0  0  0  0
    1.3085   -2.3582   -2.1103 H   0  0  0  0  0  0
    2.2261    1.1081   -3.1971 H   0  0  0  0  0  0
    2.2442   -0.6513   -3.3246 H   0  0  0  0  0  0
    0.7301    0.2100   -2.9180 H   0  0  0  0  0  0
    4.2442    2.9940    0.1965 H   0  0  0  0  0  0
    5.0129    3.1681    2.5369 H   0  0  0  0  0  0
    4.4372    1.3756    4.1584 H   0  0  0  0  0  0
    3.1137   -0.5438    3.4388 H   0  0  0  0  0  0
    1.4846   -1.7060    2.8232 H   0  0  0  0  0  0
    2.2983   -2.8857    1.7646 H   0  0  0  0  0  0
    0.5960   -2.4045    1.5139 H   0  0  0  0  0  0
  1  2  1  0  0  0
  1 27  1  0  0  0
  1 28  1  0  0  0
  1 29  1  0  0  0
  2  3  2  0  0  0
  2  8  1  0  0  0
  3  4  1  0  0  0
  4  5  2  0  0  0
  4 30  1  0  0  0
  5  6  1  0  0  0
  5  7  1  0  0  0
  7  8  2  0  0  0
  7 31  1  0  0  0
  8  9  1  0  0  0
  9 10  2  0  0  0
  9 26  1  0  0  0
 10 11  1  0  0  0
 11 12  1  0  0  0
 12 13  1  0  0  0
 12 26  2  0  0  0
 13 14  1  0  0  0
 13 32  1  0  0  0
 13 33  1  0  0  0
 14 15  1  0  0  0
 14 24  2  0  0  0
 15 16  1  0  0  0
 15 17  2  0  0  0
 16 34  1  0  0  0
 16 35  1  0  0  0
 16 36  1  0  0  0
 17 18  1  0  0  0
 18 19  1  0  0  0
 18 23  2  0  0  0
 19 20  2  0  0  0
 19 37  1  0  0  0
 20 21  1  0  0  0
 20 38  1  0  0  0
 21 22  2  0  0  0
 21 39  1  0  0  0
 22 23  1  0  0  0
 22 40  1  0  0  0
 23 24  1  0  0  0
 24 25  1  0  0  0
 25 41  1  0  0  0
 25 42  1  0  0  0
 25 43  1  0  0  0
M  END
> <energy>
95.7795

> <i_ionizer_Ion_state_n>
0

> <i_ionizer_Tot_Q>
0

> <s_ionizer_Ion_centers>


> <s_ionizer_Ion_types>


> <s_ionizer_Ion_ctrs_in>


> <r_ionizer_Ionization_penalty>
0.0148248

> <r_ionizer_Ionization_penalty_charging>
0

> <r_ionizer_Ionization_penalty_neutral>
0.0148248

$$$$
ZINC001211863906
                    3D
 Schrodinger Suite 2019-4.
 48 50  0  0  1  0            999 V2000
    3.6731   -2.0756   -1.3659 C   0  0  0  0  0  0
    2.9027   -1.4989   -2.4570 N   0  0  0  0  0  0
    2.6395   -2.3673   -3.5925 C   0  0  0  0  0  0
    2.3840   -0.2061   -2.4612 C   0  0  0  0  0  0
    1.8195    0.3050   -3.4269 O   0  0  0  0  0  0
    2.4393    0.5765   -1.2169 C   0  0  0  0  0  0
    1.5928    0.2343   -0.1532 C   0  0  0  0  0  0
    1.5642    1.0261    1.0005 C   0  0  0  0  0  0
    0.6140    0.8482    2.0454 N   0  0  0  0  0  0
   -0.1075   -0.3560    2.2908 C   0  0  0  0  0  0
    0.3444   -1.2592    3.2635 C   0  0  0  0  0  0
    1.4387   -0.9808    3.9887 F   0  0  0  0  0  0
   -0.3418   -2.4437    3.5304 C   0  0  0  0  0  0
   -1.4831   -2.7644    2.7984 C   0  0  0  0  0  0
   -1.9333   -1.8985    1.8008 C   0  0  0  0  0  0
   -1.2559   -0.6998    1.5564 C   0  0  0  0  0  0
   -1.6436    0.0949    0.5088 O   0  0  0  0  0  0
   -2.7793    0.9122    0.8276 C   0  0  0  0  0  0
   -4.0268    0.3612    0.1219 C   0  0  0  0  0  0
   -4.4762    1.4373   -0.8624 C   0  0  0  0  0  0
   -3.2233    2.2456   -1.1401 C   0  0  0  0  0  0
   -2.5340    2.2960    0.2156 C   0  0  0  0  0  0
    2.4017    2.1511    1.0709 C   0  0  0  0  0  0
    3.2539    2.4806    0.0150 C   0  0  0  0  0  0
    3.2592    1.6969   -1.1334 C   0  0  0  0  0  0
    4.0635    2.0441   -2.1475 F   0  0  0  0  0  0
    4.5293   -2.6155   -1.7804 H   0  0  0  0  0  0
    3.0324   -2.7698   -0.8166 H   0  0  0  0  0  0
    4.0500   -1.3112   -0.6847 H   0  0  0  0  0  0
    2.0499   -1.8702   -4.3674 H   0  0  0  0  0  0
    3.5926   -2.6885   -4.0215 H   0  0  0  0  0  0
    2.0864   -3.2450   -3.2445 H   0  0  0  0  0  0
    0.9297   -0.6195   -0.2668 H   0  0  0  0  0  0
   -0.1018    1.5543    1.8534 H   0  0  0  0  0  0
    0.0192   -3.1070    4.3110 H   0  0  0  0  0  0
   -2.0177   -3.6918    2.9992 H   0  0  0  0  0  0
   -2.8029   -2.1692    1.2079 H   0  0  0  0  0  0
   -2.9239    1.0023    1.9112 H   0  0  0  0  0  0
   -3.8023   -0.5634   -0.4197 H   0  0  0  0  0  0
   -4.8273    0.1411    0.8371 H   0  0  0  0  0  0
   -4.9034    1.0066   -1.7735 H   0  0  0  0  0  0
   -5.2417    2.0736   -0.4050 H   0  0  0  0  0  0
   -3.4515    3.2435   -1.5230 H   0  0  0  0  0  0
   -2.5942    1.7326   -1.8774 H   0  0  0  0  0  0
   -3.0109    3.0632    0.8359 H   0  0  0  0  0  0
   -1.4721    2.5394    0.1124 H   0  0  0  0  0  0
    2.3808    2.7784    1.9596 H   0  0  0  0  0  0
    3.8936    3.3560    0.0750 H   0  0  0  0  0  0
  1  2  1  0  0  0
  1 27  1  0  0  0
  1 28  1  0  0  0
  1 29  1  0  0  0
  2  3  1  0  0  0
  2  4  1  0  0  0
  3 30  1  0  0  0
  3 31  1  0  0  0
  3 32  1  0  0  0
  4  5  2  0  0  0
  4  6  1  0  0  0
  6  7  2  0  0  0
  6 25  1  0  0  0
  7  8  1  0  0  0
  7 33  1  0  0  0
  8  9  1  0  0  0
  8 23  2  0  0  0
  9 10  1  0  0  0
  9 34  1  0  0  0
 10 11  2  0  0  0
 10 16  1  0  0  0
 11 12  1  0  0  0
 11 13  1  0  0  0
 13 14  2  0  0  0
 13 35  1  0  0  0
 14 15  1  0  0  0
 14 36  1  0  0  0
 15 16  2  0  0  0
 15 37  1  0  0  0
 16 17  1  0  0  0
 17 18  1  0  0  0
 18 19  1  0  0  0
 18 22  1  0  0  0
 18 38  1  0  0  0
 19 20  1  0  0  0
 19 39  1  0  0  0
 19 40  1  0  0  0
 20 21  1  0  0  0
 20 41  1  0  0  0
 20 42  1  0  0  0
 21 22  1  0  0  0
 21 43  1  0  0  0
 21 44  1  0  0  0
 22 45  1  0  0  0
 22 46  1  0  0  0
 23 24  1  0  0  0
 23 47  1  0  0  0
 24 25  2  0  0  0
 24 48  1  0  0  0
 25 26  1  0  0  0
M  END
> <energy>
73.105

> <i_ionizer_Ion_state_n>
0

> <i_ionizer_Tot_Q>
0

> <s_ionizer_Ion_centers>


> <s_ionizer_Ion_types>


> <s_ionizer_Ion_ctrs_in>


> <r_ionizer_Ionization_penalty>
0

> <r_ionizer_Ionization_penalty_charging>
0

> <r_ionizer_Ionization_penalty_neutral>
0

$$$$
ZINC001211863916
                    3D
 Schrodinger Suite 2019-4.
 50 53  0  0  1  0            999 V2000
   -4.4271    0.2722    2.5860 C   0  0  0  0  0  0
   -3.7561   -0.4007    1.4181 C   0  0  0  0  0  0
   -3.2639   -1.6315    1.6933 N   0  0  0  0  0  0
   -2.5800   -2.2937    0.7525 C   0  0  0  0  0  0
   -1.9883   -3.5015    1.1034 C   0  0  0  0  0  0
   -1.2287   -4.2416    0.1955 C   0  0  0  0  0  0
   -1.0546   -3.7671   -1.0950 C   0  0  0  0  0  0
   -1.6474   -2.5601   -1.4672 C   0  0  0  0  0  0
   -2.4220   -1.8009   -0.5568 C   0  0  0  0  0  0
   -3.0138   -0.5454   -0.8726 C   0  0  0  0  0  0
   -2.9015   -0.0236   -2.2879 C   0  0  0  0  0  0
   -3.6326    0.2102    0.1615 C   0  0  0  0  0  0
   -3.9297    1.7001    0.0024 C   0  0  0  0  0  0
   -2.6626    2.4615    0.2041 C   0  0  0  0  0  0
   -1.5774    2.4101   -0.5363 N   0  0  0  0  0  0
   -0.5989    2.6963    0.3822 C   0  0  0  0  0  0
    0.7379    2.1850    0.1800 C   0  0  0  0  0  0
    1.4576    1.6105    1.2305 C   0  0  0  0  0  0
    2.5941    0.8577    0.9463 C   0  0  0  0  0  0
    3.0116    0.7591   -0.3785 C   0  0  0  0  0  0
    4.0364   -0.0810   -0.7234 O   0  0  0  0  0  0
    5.2992    0.3842   -0.2278 C   0  0  0  0  0  0
    6.1025    0.9665   -1.3838 C   0  0  0  0  0  0
    6.0254   -0.8087    0.3771 C   0  0  0  0  0  0
    2.3777    1.3524   -1.4067 N   0  0  0  0  0  0
    1.2430    2.0315   -1.1074 C   0  0  0  0  0  0
   -1.0657    3.1925    1.5417 N   0  0  0  0  0  0
   -2.4479    3.0242    1.4286 O   0  0  0  0  0  0
   -4.4605   -0.3966    3.4542 H   0  0  0  0  0  0
   -5.4609    0.5295    2.3295 H   0  0  0  0  0  0
   -3.8857    1.1753    2.8853 H   0  0  0  0  0  0
   -2.1094   -3.8718    2.1200 H   0  0  0  0  0  0
   -0.7709   -5.1764    0.5008 H   0  0  0  0  0  0
   -0.4563   -4.3224   -1.8133 H   0  0  0  0  0  0
   -1.4700   -2.2045   -2.4783 H   0  0  0  0  0  0
   -3.2038   -0.7935   -3.0063 H   0  0  0  0  0  0
   -1.8741    0.2842   -2.5041 H   0  0  0  0  0  0
   -3.5640    0.8202   -2.4850 H   0  0  0  0  0  0
   -4.6898    2.0369    0.7133 H   0  0  0  0  0  0
   -4.3529    1.9223   -0.9811 H   0  0  0  0  0  0
    1.0888    1.6633    2.2535 H   0  0  0  0  0  0
    3.1077    0.3122    1.7297 H   0  0  0  0  0  0
    5.1912    1.1533    0.5480 H   0  0  0  0  0  0
    7.1133    1.2398   -1.0596 H   0  0  0  0  0  0
    5.6132    1.8631   -1.7796 H   0  0  0  0  0  0
    6.1800    0.2543   -2.2122 H   0  0  0  0  0  0
    7.0229   -0.5259    0.7311 H   0  0  0  0  0  0
    5.4587   -1.2262    1.2146 H   0  0  0  0  0  0
    6.1316   -1.6173   -0.3527 H   0  0  0  0  0  0
    0.7036    2.4220   -1.9673 H   0  0  0  0  0  0
  1  2  1  0  0  0
  1 29  1  0  0  0
  1 30  1  0  0  0
  1 31  1  0  0  0
  2  3  2  0  0  0
  2 12  1  0  0  0
  3  4  1  0  0  0
  4  5  2  0  0  0
  4  9  1  0  0  0
  5  6  1  0  0  0
  5 32  1  0  0  0
  6  7  2  0  0  0
  6 33  1  0  0  0
  7  8  1  0  0  0
  7 34  1  0  0  0
  8  9  2  0  0  0
  8 35  1  0  0  0
  9 10  1  0  0  0
 10 11  1  0  0  0
 10 12  2  0  0  0
 11 36  1  0  0  0
 11 37  1  0  0  0
 11 38  1  0  0  0
 12 13  1  0  0  0
 13 14  1  0  0  0
 13 39  1  0  0  0
 13 40  1  0  0  0
 14 15  2  0  0  0
 14 28  1  0  0  0
 15 16  1  0  0  0
 16 17  1  0  0  0
 16 27  2  0  0  0
 17 18  2  0  0  0
 17 26  1  0  0  0
 18 19  1  0  0  0
 18 41  1  0  0  0
 19 20  2  0  0  0
 19 42  1  0  0  0
 20 21  1  0  0  0
 20 25  1  0  0  0
 21 22  1  0  0  0
 22 23  1  0  0  0
 22 24  1  0  0  0
 22 43  1  0  0  0
 23 44  1  0  0  0
 23 45  1  0  0  0
 23 46  1  0  0  0
 24 47  1  0  0  0
 24 48  1  0  0  0
 24 49  1  0  0  0
 25 26  2  0  0  0
 26 50  1  0  0  0
 27 28  1  0  0  0
M  END
> <energy>
93.7012

> <i_ionizer_Ion_state_n>
0

> <i_ionizer_Tot_Q>
0

> <s_ionizer_Ion_centers>


> <s_ionizer_Ion_types>


> <s_ionizer_Ion_ctrs_in>


> <r_ionizer_Ionization_penalty>
0.00741239

> <r_ionizer_Ionization_penalty_charging>
0

> <r_ionizer_Ionization_penalty_neutral>
0.00741239

$$$$
ZINC001211863949
                    3D
 Schrodinger Suite 2019-4.
 48 51  0  0  1  0            999 V2000
    4.0230    1.6237   -2.7712 C   0  0  0  0  0  0
    4.5333    2.3502   -1.6566 O   0  0  0  0  0  0
    4.2921    1.8061   -0.4208 C   0  0  0  0  0  0
    3.2264    0.9436   -0.1403 C   0  0  0  0  0  0
    3.0311    0.4307    1.1539 C   0  0  0  0  0  0
    1.8875   -0.4365    1.4184 C   0  0  0  0  0  0
    1.3939   -0.7084    2.6366 N   0  0  0  0  0  0
    0.2765   -1.5051    2.3748 O   0  0  0  0  0  0
    0.2109   -1.6487    1.0214 C   0  0  0  0  0  0
   -0.8807   -2.5008    0.4726 C   0  0  0  0  0  0
   -2.0866   -1.7343   -0.0524 C   0  0  0  0  0  0
   -1.9676   -0.8943   -1.1725 C   0  0  0  0  0  0
   -0.7026   -0.7100   -1.9599 C   0  0  0  0  0  0
   -2.9831   -0.1262   -1.6291 N   0  0  0  0  0  0
   -4.1617   -0.1454   -1.0045 C   0  0  0  0  0  0
   -5.1405    0.7261   -1.4660 C   0  0  0  0  0  0
   -6.4057    0.7955   -0.8874 C   0  0  0  0  0  0
   -6.7029   -0.0329    0.1841 C   0  0  0  0  0  0
   -5.7260   -0.9105    0.6671 C   0  0  0  0  0  0
   -4.4312   -0.9869    0.0902 C   0  0  0  0  0  0
   -3.3724   -1.8355    0.5471 C   0  0  0  0  0  0
   -3.6243   -2.7956    1.6899 C   0  0  0  0  0  0
    1.1912   -1.0408    0.3924 N   0  0  0  0  0  0
    3.9330    0.7794    2.1643 C   0  0  0  0  0  0
    4.9894    1.6556    1.8959 C   0  0  0  0  0  0
    5.1630    2.1929    0.6111 C   0  0  0  0  0  0
    6.2686    3.1757    0.3486 C   0  0  0  0  0  0
    2.9367    1.7329   -2.8540 H   0  0  0  0  0  0
    4.4665    2.0466   -3.6786 H   0  0  0  0  0  0
    4.3054    0.5664   -2.7263 H   0  0  0  0  0  0
    2.5154    0.6750   -0.9161 H   0  0  0  0  0  0
   -1.1596   -3.2086    1.2557 H   0  0  0  0  0  0
   -0.4781   -3.1259   -0.3358 H   0  0  0  0  0  0
   -0.1190    0.1174   -1.5451 H   0  0  0  0  0  0
   -0.9481   -0.4523   -2.9967 H   0  0  0  0  0  0
   -0.0933   -1.6165   -1.9987 H   0  0  0  0  0  0
   -4.8969    1.3892   -2.2930 H   0  0  0  0  0  0
   -7.1378    1.5026   -1.2686 H   0  0  0  0  0  0
   -7.6811    0.0062    0.6566 H   0  0  0  0  0  0
   -5.9922   -1.5147    1.5282 H   0  0  0  0  0  0
   -3.3356   -2.3356    2.6381 H   0  0  0  0  0  0
   -4.6709   -3.1087    1.7541 H   0  0  0  0  0  0
   -3.0869   -3.7396    1.5608 H   0  0  0  0  0  0
    3.8154    0.3827    3.1701 H   0  0  0  0  0  0
    5.6723    1.9252    2.6971 H   0  0  0  0  0  0
    6.9709    2.7668   -0.3849 H   0  0  0  0  0  0
    6.8281    3.4071    1.2591 H   0  0  0  0  0  0
    5.8537    4.1164   -0.0296 H   0  0  0  0  0  0
  1  2  1  0  0  0
  1 28  1  0  0  0
  1 29  1  0  0  0
  1 30  1  0  0  0
  2  3  1  0  0  0
  3  4  2  0  0  0
  3 26  1  0  0  0
  4  5  1  0  0  0
  4 31  1  0  0  0
  5  6  1  0  0  0
  5 24  2  0  0  0
  6  7  2  0  0  0
  6 23  1  0  0  0
  7  8  1  0  0  0
  8  9  1  0  0  0
  9 10  1  0  0  0
  9 23  2  0  0  0
 10 11  1  0  0  0
 10 32  1  0  0  0
 10 33  1  0  0  0
 11 12  1  0  0  0
 11 21  2  0  0  0
 12 13  1  0  0  0
 12 14  2  0  0  0
 13 34  1  0  0  0
 13 35  1  0  0  0
 13 36  1  0  0  0
 14 15  1  0  0  0
 15 16  1  0  0  0
 15 20  2  0  0  0
 16 17  2  0  0  0
 16 37  1  0  0  0
 17 18  1  0  0  0
 17 38  1  0  0  0
 18 19  2  0  0  0
 18 39  1  0  0  0
 19 20  1  0  0  0
 19 40  1  0  0  0
 20 21  1  0  0  0
 21 22  1  0  0  0
 22 41  1  0  0  0
 22 42  1  0  0  0
 22 43  1  0  0  0
 24 25  1  0  0  0
 24 44  1  0  0  0
 25 26  2  0  0  0
 25 45  1  0  0  0
 26 27  1  0  0  0
 27 46  1  0  0  0
 27 47  1  0  0  0
 27 48  1  0  0  0
M  END
> <energy>
93.8038

> <i_ionizer_Ion_state_n>
0

> <i_ionizer_Tot_Q>
0

> <s_ionizer_Ion_centers>


> <s_ionizer_Ion_types>


> <s_ionizer_Ion_ctrs_in>


> <r_ionizer_Ionization_penalty>
0.00741239

> <r_ionizer_Ionization_penalty_charging>
0

> <r_ionizer_Ionization_penalty_neutral>
0.00741239

$$$$
ZINC001211863950
                    3D
 Schrodinger Suite 2019-4.
 36 40  0  0  1  0            999 V2000
    3.5735    1.9929   -2.6561 O   0  0  0  0  0  0
    3.2951    1.2410   -1.7402 C   0  0  0  0  0  0
    3.1281   -0.2553   -1.8247 C   0  0  0  0  0  0
    2.6848   -0.6880   -0.4115 C   0  0  2  0  0  0
    1.2872   -1.1963   -0.3874 C   0  0  0  0  0  0
    0.2090   -0.7463   -0.9885 N   0  0  0  0  0  0
   -0.7904   -1.4934   -0.4018 C   0  0  0  0  0  0
   -2.1934   -1.2362   -0.6547 C   0  0  0  0  0  0
   -2.6863   -1.0162   -1.9541 C   0  0  0  0  0  0
   -4.0386   -0.7264   -2.1701 C   0  0  0  0  0  0
   -4.9347   -0.6314   -1.1010 C   0  0  0  0  0  0
   -4.4134   -0.8396    0.1735 C   0  0  0  0  0  0
   -5.1284   -0.7658    1.3294 O   0  0  0  0  0  0
   -4.2644   -1.0119    2.3466 C   0  0  0  0  0  0
   -2.9992   -1.2439    1.8590 C   0  0  0  0  0  0
   -3.0820   -1.1415    0.4383 C   0  0  0  0  0  0
   -0.3393   -2.4210    0.4584 N   0  0  0  0  0  0
    1.0351   -2.2193    0.4786 O   0  0  0  0  0  0
    2.8166    0.5688    0.4144 C   0  0  0  0  0  0
    2.6123    0.7218    1.7786 C   0  0  0  0  0  0
    2.7080    2.0059    2.3279 C   0  0  0  0  0  0
    3.0168    3.1099    1.5163 C   0  0  0  0  0  0
    3.1317    4.6721    2.2266 Cl  0  0  0  0  0  0
    3.2276    2.9564    0.1482 C   0  0  0  0  0  0
    3.1242    1.6777   -0.3644 C   0  0  0  0  0  0
    2.4051   -0.5114   -2.6068 H   0  0  0  0  0  0
    4.1025   -0.6918   -2.0707 H   0  0  0  0  0  0
    3.3728   -1.4536   -0.0293 H   0  0  0  0  0  0
   -2.0112   -1.0715   -2.8077 H   0  0  0  0  0  0
   -4.4003   -0.5638   -3.1830 H   0  0  0  0  0  0
   -5.9823   -0.3935   -1.2448 H   0  0  0  0  0  0
   -4.6904   -0.9871    3.3399 H   0  0  0  0  0  0
   -2.1223   -1.4625    2.4520 H   0  0  0  0  0  0
    2.3611   -0.1244    2.4120 H   0  0  0  0  0  0
    2.5246    2.1470    3.3912 H   0  0  0  0  0  0
    3.4604    3.7988   -0.4939 H   0  0  0  0  0  0
  1  2  2  0  0  0
  2  3  1  0  0  0
  2 25  1  0  0  0
  3  4  1  0  0  0
  3 26  1  0  0  0
  3 27  1  0  0  0
  4  5  1  0  0  0
  4 19  1  0  0  0
  4 28  1  0  0  0
  5  6  2  0  0  0
  5 18  1  0  0  0
  6  7  1  0  0  0
  7  8  1  0  0  0
  7 17  2  0  0  0
  8  9  2  0  0  0
  8 16  1  0  0  0
  9 10  1  0  0  0
  9 29  1  0  0  0
 10 11  2  0  0  0
 10 30  1  0  0  0
 11 12  1  0  0  0
 11 31  1  0  0  0
 12 13  1  0  0  0
 12 16  2  0  0  0
 13 14  1  0  0  0
 14 15  2  0  0  0
 14 32  1  0  0  0
 15 16  1  0  0  0
 15 33  1  0  0  0
 17 18  1  0  0  0
 19 20  2  0  0  0
 19 25  1  0  0  0
 20 21  1  0  0  0
 20 34  1  0  0  0
 21 22  2  0  0  0
 21 35  1  0  0  0
 22 23  1  0  0  0
 22 24  1  0  0  0
 24 25  2  0  0  0
 24 36  1  0  0  0
M  END
> <energy>
57.5656

> <i_ionizer_Ion_state_n>
0

> <i_ionizer_Tot_Q>
0

> <s_ionizer_Ion_centers>


> <s_ionizer_Ion_types>


> <s_ionizer_Ion_ctrs_in>


> <r_ionizer_Ionization_penalty>
0

> <r_ionizer_Ionization_penalty_charging>
0

> <r_ionizer_Ionization_penalty_neutral>
0

$$$$
ZINC001211863951
                    3D
 Schrodinger Suite 2019-4.
 36 40  0  0  1  0            999 V2000
    0.1283   -3.3895   -2.4150 O   0  0  0  0  0  0
    0.8911   -2.7897   -1.6796 C   0  0  0  0  0  0
    1.8358   -1.6808   -2.0772 C   0  0  0  0  0  0
    2.3736   -1.1297   -0.7362 C   0  0  1  0  0  0
    1.7373    0.1721   -0.3906 C   0  0  0  0  0  0
    0.4756    0.5235   -0.4588 N   0  0  0  0  0  0
    0.4715    1.7634    0.1427 C   0  0  0  0  0  0
   -0.7539    2.5120    0.3590 C   0  0  0  0  0  0
   -0.9343    3.3400    1.4849 C   0  0  0  0  0  0
   -2.1355    4.0265    1.6914 C   0  0  0  0  0  0
   -3.1858    3.9318    0.7709 C   0  0  0  0  0  0
   -2.9711    3.1200   -0.3411 C   0  0  0  0  0  0
   -3.8680    2.9103   -1.3445 O   0  0  0  0  0  0
   -3.2915    2.0517   -2.2236 C   0  0  0  0  0  0
   -2.0308    1.7043   -1.8011 C   0  0  0  0  0  0
   -1.8032    2.3987   -0.5761 C   0  0  0  0  0  0
    1.6886    2.1765    0.5362 N   0  0  0  0  0  0
    2.5300    1.1261    0.1698 O   0  0  0  0  0  0
    1.9840   -2.1883    0.2621 C   0  0  0  0  0  0
    2.3458   -2.2779    1.5988 C   0  0  0  0  0  0
    1.7394   -3.2648    2.3874 C   0  0  0  0  0  0
    0.7923   -4.1431    1.8360 C   0  0  0  0  0  0
    0.0202   -5.3011    2.8501 Cl  0  0  0  0  0  0
    0.4572   -4.0781    0.4858 C   0  0  0  0  0  0
    1.0647   -3.0896   -0.2650 C   0  0  0  0  0  0
    1.3173   -0.9295   -2.6822 H   0  0  0  0  0  0
    2.6467   -2.1320   -2.6623 H   0  0  0  0  0  0
    3.4631   -1.0256   -0.7856 H   0  0  0  0  0  0
   -0.1385    3.4385    2.2211 H   0  0  0  0  0  0
   -2.2623    4.6360    2.5843 H   0  0  0  0  0  0
   -4.1269    4.4503    0.9175 H   0  0  0  0  0  0
   -3.8926    1.7839   -3.0806 H   0  0  0  0  0  0
   -1.3542    1.0298   -2.3071 H   0  0  0  0  0  0
    3.0572   -1.5862    2.0422 H   0  0  0  0  0  0
    1.9898   -3.3313    3.4457 H   0  0  0  0  0  0
   -0.2611   -4.7582    0.0408 H   0  0  0  0  0  0
  1  2  2  0  0  0
  2  3  1  0  0  0
  2 25  1  0  0  0
  3  4  1  0  0  0
  3 26  1  0  0  0
  3 27  1  0  0  0
  4  5  1  0  0  0
  4 19  1  0  0  0
  4 28  1  0  0  0
  5  6  2  0  0  0
  5 18  1  0  0  0
  6  7  1  0  0  0
  7  8  1  0  0  0
  7 17  2  0  0  0
  8  9  2  0  0  0
  8 16  1  0  0  0
  9 10  1  0  0  0
  9 29  1  0  0  0
 10 11  2  0  0  0
 10 30  1  0  0  0
 11 12  1  0  0  0
 11 31  1  0  0  0
 12 13  1  0  0  0
 12 16  2  0  0  0
 13 14  1  0  0  0
 14 15  2  0  0  0
 14 32  1  0  0  0
 15 16  1  0  0  0
 15 33  1  0  0  0
 17 18  1  0  0  0
 19 20  2  0  0  0
 19 25  1  0  0  0
 20 21  1  0  0  0
 20 34  1  0  0  0
 21 22  2  0  0  0
 21 35  1  0  0  0
 22 23  1  0  0  0
 22 24  1  0  0  0
 24 25  2  0  0  0
 24 36  1  0  0  0
M  END
> <energy>
56.4838

> <i_ionizer_Ion_state_n>
0

> <i_ionizer_Tot_Q>
0

> <s_ionizer_Ion_centers>


> <s_ionizer_Ion_types>


> <s_ionizer_Ion_ctrs_in>


> <r_ionizer_Ionization_penalty>
0

> <r_ionizer_Ionization_penalty_charging>
0

> <r_ionizer_Ionization_penalty_neutral>
0

$$$$
ZINC001211863952
                    3D
 Schrodinger Suite 2019-4.
 45 48  0  0  1  0            999 V2000
   -4.3088    1.0041   -1.2958 C   0  0  0  0  0  0
   -4.4036    1.1918    0.1167 O   0  0  0  0  0  0
   -4.0294    0.0539    0.7865 C   0  0  0  0  0  0
   -4.9290   -1.0143    0.8747 C   0  0  0  0  0  0
   -4.5825   -2.1419    1.6127 C   0  0  0  0  0  0
   -5.4394   -3.1672    1.6952 F   0  0  0  0  0  0
   -3.3638   -2.2225    2.2751 C   0  0  0  0  0  0
   -2.4770   -1.1456    2.2072 C   0  0  0  0  0  0
   -2.8019    0.0018    1.4607 C   0  0  0  0  0  0
   -1.8203    1.0668    1.3672 C   0  0  0  0  0  0
   -1.3414    1.7281    2.4336 N   0  0  0  0  0  0
   -0.2743    2.4565    1.9160 O   0  0  0  0  0  0
   -0.1899    2.1323    0.5933 C   0  0  0  0  0  0
    1.0321    2.5869   -0.1282 C   0  0  0  0  0  0
    1.8365    1.3969   -0.6288 C   0  0  0  0  0  0
    1.7976    1.0279   -1.9809 C   0  0  0  0  0  0
    1.0952    1.8486   -3.0256 C   0  0  0  0  0  0
    2.3747   -0.1026   -2.4524 N   0  0  0  0  0  0
    2.9695   -0.9411   -1.5953 C   0  0  0  0  0  0
    3.4792   -2.1292   -2.0994 C   0  0  0  0  0  0
    4.0836   -3.0820   -1.2781 C   0  0  0  0  0  0
    4.1812   -2.8475    0.0842 C   0  0  0  0  0  0
    3.6920   -1.6516    0.6084 C   0  0  0  0  0  0
    3.0810   -0.6739   -0.2169 C   0  0  0  0  0  0
    2.5500    0.5548    0.2628 C   0  0  0  0  0  0
    2.6909    0.9011    1.7273 C   0  0  0  0  0  0
   -1.1521    1.3300    0.1934 N   0  0  0  0  0  0
   -4.4070    1.9841   -1.7725 H   0  0  0  0  0  0
   -5.1259    0.3722   -1.6566 H   0  0  0  0  0  0
   -3.3420    0.5813   -1.5911 H   0  0  0  0  0  0
   -5.8986   -0.9750    0.3896 H   0  0  0  0  0  0
   -3.1134   -3.1147    2.8433 H   0  0  0  0  0  0
   -1.5201   -1.2118    2.7197 H   0  0  0  0  0  0
    1.6588    3.2112    0.5188 H   0  0  0  0  0  0
    0.7354    3.2559   -0.9430 H   0  0  0  0  0  0
    0.0281    1.9276   -2.7980 H   0  0  0  0  0  0
    1.1906    1.3895   -4.0164 H   0  0  0  0  0  0
    1.5385    2.8470   -3.0841 H   0  0  0  0  0  0
    3.3951   -2.3206   -3.1677 H   0  0  0  0  0  0
    4.4697   -4.0026   -1.7072 H   0  0  0  0  0  0
    4.6300   -3.5865    0.7405 H   0  0  0  0  0  0
    3.7822   -1.4986    1.6805 H   0  0  0  0  0  0
    3.6900    0.6365    2.0964 H   0  0  0  0  0  0
    1.9351    0.3695    2.3137 H   0  0  0  0  0  0
    2.6034    1.9723    1.9206 H   0  0  0  0  0  0
  1  2  1  0  0  0
  1 28  1  0  0  0
  1 29  1  0  0  0
  1 30  1  0  0  0
  2  3  1  0  0  0
  3  4  2  0  0  0
  3  9  1  0  0  0
  4  5  1  0  0  0
  4 31  1  0  0  0
  5  6  1  0  0  0
  5  7  2  0  0  0
  7  8  1  0  0  0
  7 32  1  0  0  0
  8  9  2  0  0  0
  8 33  1  0  0  0
  9 10  1  0  0  0
 10 11  2  0  0  0
 10 27  1  0  0  0
 11 12  1  0  0  0
 12 13  1  0  0  0
 13 14  1  0  0  0
 13 27  2  0  0  0
 14 15  1  0  0  0
 14 34  1  0  0  0
 14 35  1  0  0  0
 15 16  1  0  0  0
 15 25  2  0  0  0
 16 17  1  0  0  0
 16 18  2  0  0  0
 17 36  1  0  0  0
 17 37  1  0  0  0
 17 38  1  0  0  0
 18 19  1  0  0  0
 19 20  1  0  0  0
 19 24  2  0  0  0
 20 21  2  0  0  0
 20 39  1  0  0  0
 21 22  1  0  0  0
 21 40  1  0  0  0
 22 23  2  0  0  0
 22 41  1  0  0  0
 23 24  1  0  0  0
 23 42  1  0  0  0
 24 25  1  0  0  0
 25 26  1  0  0  0
 26 43  1  0  0  0
 26 44  1  0  0  0
 26 45  1  0  0  0
M  END
> <energy>
100.316

> <i_ionizer_Ion_state_n>
0

> <i_ionizer_Tot_Q>
0

> <s_ionizer_Ion_centers>


> <s_ionizer_Ion_types>


> <s_ionizer_Ion_ctrs_in>


> <r_ionizer_Ionization_penalty>
0.00741239

> <r_ionizer_Ionization_penalty_charging>
0

> <r_ionizer_Ionization_penalty_neutral>
0.00741239

$$$$
ZINC001211863962
                    3D
 Schrodinger Suite 2019-4.
 39 42  0  0  1  0            999 V2000
    3.3120   -3.0680    1.1926 C   0  0  0  0  0  0
    4.3510   -1.9800    0.9434 C   0  0  0  0  0  0
    3.8145   -0.8919    0.0503 C   0  0  0  0  0  0
    2.7891   -0.0585    0.5143 C   0  0  0  0  0  0
    2.2204    0.9149   -0.3186 C   0  0  0  0  0  0
    1.0674    1.6367    0.1806 C   0  0  0  0  0  0
    1.1155    2.5363    1.1742 N   0  0  0  0  0  0
   -0.2251    2.6839    1.5417 O   0  0  0  0  0  0
   -0.9388    1.8457    0.7348 C   0  0  0  0  0  0
   -2.3897    1.6896    1.0277 C   0  0  1  0  0  0
   -3.2116    2.8542    0.4356 C   0  0  0  0  0  0
   -4.2489    2.1933   -0.4423 C   0  0  0  0  0  0
   -5.1324    2.7556   -1.0642 O   0  0  0  0  0  0
   -4.0453    0.7549   -0.4501 C   0  0  0  0  0  0
   -4.7185   -0.2036   -1.1874 C   0  0  0  0  0  0
   -4.3001   -1.5263   -1.0397 C   0  0  0  0  0  0
   -5.0696   -2.7711   -1.9450 Cl  0  0  0  0  0  0
   -3.2458   -1.8595   -0.1754 C   0  0  0  0  0  0
   -2.5890   -0.8671    0.5604 C   0  0  0  0  0  0
   -2.9898    0.4550    0.4022 C   0  0  0  0  0  0
   -0.1985    1.2238   -0.1499 N   0  0  0  0  0  0
    2.6898    1.0735   -1.6253 C   0  0  0  0  0  0
    3.7272    0.2576   -2.0920 C   0  0  0  0  0  0
    4.2757   -0.7186   -1.2593 C   0  0  0  0  0  0
    5.2401   -1.5145   -1.7433 F   0  0  0  0  0  0
    3.7282   -3.8619    1.8163 H   0  0  0  0  0  0
    2.4314   -2.6702    1.7085 H   0  0  0  0  0  0
    2.9710   -3.5150    0.2535 H   0  0  0  0  0  0
    5.2551   -2.4339    0.5206 H   0  0  0  0  0  0
    4.6486   -1.5361    1.9021 H   0  0  0  0  0  0
    2.3969   -0.1986    1.5199 H   0  0  0  0  0  0
   -2.5431    1.6411    2.1146 H   0  0  0  0  0  0
   -2.6065    3.5306   -0.1776 H   0  0  0  0  0  0
   -3.7117    3.4204    1.2269 H   0  0  0  0  0  0
   -5.5220    0.0703   -1.8672 H   0  0  0  0  0  0
   -2.9169   -2.8947   -0.0902 H   0  0  0  0  0  0
   -1.7586   -1.1282    1.2080 H   0  0  0  0  0  0
    2.2381    1.8076   -2.2899 H   0  0  0  0  0  0
    4.0900    0.3531   -3.1107 H   0  0  0  0  0  0
  1  2  1  0  0  0
  1 26  1  0  0  0
  1 27  1  0  0  0
  1 28  1  0  0  0
  2  3  1  0  0  0
  2 29  1  0  0  0
  2 30  1  0  0  0
  3  4  2  0  0  0
  3 24  1  0  0  0
  4  5  1  0  0  0
  4 31  1  0  0  0
  5  6  1  0  0  0
  5 22  2  0  0  0
  6  7  2  0  0  0
  6 21  1  0  0  0
  7  8  1  0  0  0
  8  9  1  0  0  0
  9 10  1  0  0  0
  9 21  2  0  0  0
 10 11  1  0  0  0
 10 20  1  0  0  0
 10 32  1  0  0  0
 11 12  1  0  0  0
 11 33  1  0  0  0
 11 34  1  0  0  0
 12 13  2  0  0  0
 12 14  1  0  0  0
 14 15  2  0  0  0
 14 20  1  0  0  0
 15 16  1  0  0  0
 15 35  1  0  0  0
 16 17  1  0  0  0
 16 18  2  0  0  0
 18 19  1  0  0  0
 18 36  1  0  0  0
 19 20  2  0  0  0
 19 37  1  0  0  0
 22 23  1  0  0  0
 22 38  1  0  0  0
 23 24  2  0  0  0
 23 39  1  0  0  0
 24 25  1  0  0  0
M  END
> <energy>
66.0186

> <i_ionizer_Ion_state_n>
0

> <i_ionizer_Tot_Q>
0

> <s_ionizer_Ion_centers>


> <s_ionizer_Ion_types>


> <s_ionizer_Ion_ctrs_in>


> <r_ionizer_Ionization_penalty>
0

> <r_ionizer_Ionization_penalty_charging>
0

> <r_ionizer_Ionization_penalty_neutral>
0

$$$$
ZINC001211863963
                    3D
 Schrodinger Suite 2019-4.
 39 42  0  0  1  0            999 V2000
    4.6199    0.9562   -1.8939 C   0  0  0  0  0  0
    4.2177    1.8125   -0.6972 C   0  0  0  0  0  0
    3.7397    0.9653    0.4531 C   0  0  0  0  0  0
    2.5182    0.2819    0.3674 C   0  0  0  0  0  0
    2.0982   -0.6012    1.3777 C   0  0  0  0  0  0
    0.8593   -1.3333    1.1846 C   0  0  0  0  0  0
    0.7121   -2.6605    1.3311 N   0  0  0  0  0  0
   -0.5593   -2.9110    0.8076 O   0  0  0  0  0  0
   -1.0607   -1.7000    0.4222 C   0  0  0  0  0  0
   -2.4658   -1.6940   -0.2195 C   0  0  3  0  0  0
   -3.3059   -1.6875    1.1115 C   0  0  0  0  0  0
   -3.9868   -0.3623    1.2398 C   0  0  0  0  0  0
   -4.4369    0.1453    2.2472 O   0  0  0  0  0  0
   -4.1095    0.1771   -0.0864 C   0  0  0  0  0  0
   -4.8446    1.2708   -0.5015 C   0  0  0  0  0  0
   -4.8609    1.5393   -1.8635 C   0  0  0  0  0  0
   -5.7494    2.8842   -2.4602 Cl  0  0  0  0  0  0
   -4.1696    0.7157   -2.7657 C   0  0  0  0  0  0
   -3.4312   -0.3849   -2.3082 C   0  0  0  0  0  0
   -3.3830   -0.6467   -0.9393 C   0  0  0  0  0  0
   -0.2421   -0.6999    0.6722 N   0  0  0  0  0  0
    2.8831   -0.7511    2.5183 C   0  0  0  0  0  0
    4.0771   -0.0331    2.6394 C   0  0  0  0  0  0
    4.5042    0.8002    1.6069 C   0  0  0  0  0  0
    5.6739    1.4436    1.7387 F   0  0  0  0  0  0
    3.7630    0.3980   -2.2934 H   0  0  0  0  0  0
    5.3988    0.2366   -1.6108 H   0  0  0  0  0  0
    5.0091    1.5785   -2.7061 H   0  0  0  0  0  0
    5.0673    2.4281   -0.3843 H   0  0  0  0  0  0
    3.4207    2.5085   -0.9856 H   0  0  0  0  0  0
    1.8966    0.4051   -0.5214 H   0  0  0  0  0  0
   -1.8110   -0.9794   -0.7723 H   0  0  0  0  0  0
   -4.0916   -2.4563    1.0550 H   0  0  0  0  0  0
   -2.7455   -1.8826    2.0343 H   0  0  0  0  0  0
   -5.3901    1.8807    0.2081 H   0  0  0  0  0  0
   -4.1979    0.9275   -3.8329 H   0  0  0  0  0  0
   -2.8846   -1.0013   -3.0125 H   0  0  0  0  0  0
    2.5748   -1.4263    3.3128 H   0  0  0  0  0  0
    4.6927   -0.1439    3.5267 H   0  0  0  0  0  0
  1  2  1  0  0  0
  1 26  1  0  0  0
  1 27  1  0  0  0
  1 28  1  0  0  0
  2  3  1  0  0  0
  2 29  1  0  0  0
  2 30  1  0  0  0
  3  4  2  0  0  0
  3 24  1  0  0  0
  4  5  1  0  0  0
  4 31  1  0  0  0
  5  6  1  0  0  0
  5 22  2  0  0  0
  6  7  2  0  0  0
  6 21  1  0  0  0
  7  8  1  0  0  0
  8  9  1  0  0  0
  9 10  1  0  0  0
  9 21  2  0  0  0
 10 11  1  0  0  0
 10 20  1  0  0  0
 10 32  1  0  0  0
 11 12  1  0  0  0
 11 33  1  0  0  0
 11 34  1  0  0  0
 12 13  2  0  0  0
 12 14  1  0  0  0
 14 15  2  0  0  0
 14 20  1  0  0  0
 15 16  1  0  0  0
 15 35  1  0  0  0
 16 17  1  0  0  0
 16 18  2  0  0  0
 18 19  1  0  0  0
 18 36  1  0  0  0
 19 20  2  0  0  0
 19 37  1  0  0  0
 22 23  1  0  0  0
 22 38  1  0  0  0
 23 24  2  0  0  0
 23 39  1  0  0  0
 24 25  1  0  0  0
M  END
> <energy>
149.717

> <i_ionizer_Ion_state_n>
0

> <i_ionizer_Tot_Q>
0

> <s_ionizer_Ion_centers>


> <s_ionizer_Ion_types>


> <s_ionizer_Ion_ctrs_in>


> <r_ionizer_Ionization_penalty>
0

> <r_ionizer_Ionization_penalty_charging>
0

> <r_ionizer_Ionization_penalty_neutral>
0

$$$$
ZINC001211863980
                    3D
 Schrodinger Suite 2019-4.
 48 52  0  0  1  0            999 V2000
   -1.7753   -1.7187   -1.1792 C   0  0  0  0  0  0
   -2.6933   -0.6835   -0.6015 C   0  0  0  0  0  0
   -3.6539   -0.3080   -1.4832 N   0  0  0  0  0  0
   -4.5722    0.5949   -1.1366 C   0  0  0  0  0  0
   -5.5213    0.9435   -2.0891 C   0  0  0  0  0  0
   -6.5214    1.8781   -1.8272 C   0  0  0  0  0  0
   -6.5756    2.4820   -0.5828 C   0  0  0  0  0  0
   -5.6363    2.1388    0.3903 C   0  0  0  0  0  0
   -4.6179    1.1821    0.1398 C   0  0  0  0  0  0
   -3.6334    0.7616    1.0841 C   0  0  0  0  0  0
   -3.6628    1.3231    2.4926 C   0  0  0  0  0  0
   -2.6070   -0.1560    0.6961 C   0  0  0  0  0  0
   -1.5620   -0.5442    1.7392 C   0  0  0  0  0  0
   -0.2834   -1.1602    1.3102 C   0  0  0  0  0  0
    0.8211   -0.6063    0.8641 N   0  0  0  0  0  0
    1.6481   -1.6976    0.6741 C   0  0  0  0  0  0
    3.0165   -1.5700    0.1843 C   0  0  0  0  0  0
    3.7407   -2.6995   -0.2202 C   0  0  0  0  0  0
    5.0645   -2.5930   -0.6675 C   0  0  0  0  0  0
    5.6785   -1.3275   -0.7074 C   0  0  0  0  0  0
    6.9696   -0.8739   -1.0861 C   0  0  0  0  0  0
    7.0058    0.4906   -0.9085 C   0  0  0  0  0  0
    5.7802    0.8858   -0.4433 N   0  0  0  0  0  0
    5.4121    2.2487   -0.1284 C   0  0  0  0  0  0
    4.9485   -0.2064   -0.3087 C   0  0  0  0  0  0
    3.6179   -0.3015    0.1319 C   0  0  0  0  0  0
    1.0781   -2.8699    1.0005 N   0  0  0  0  0  0
   -0.1887   -2.5133    1.4455 O   0  0  0  0  0  0
   -0.7673   -1.3181   -1.3083 H   0  0  0  0  0  0
   -1.7699   -2.6222   -0.5649 H   0  0  0  0  0  0
   -2.1175   -2.0235   -2.1756 H   0  0  0  0  0  0
   -5.4851    0.4677   -3.0670 H   0  0  0  0  0  0
   -7.2484    2.1280   -2.5945 H   0  0  0  0  0  0
   -7.3461    3.2158   -0.3627 H   0  0  0  0  0  0
   -5.7205    2.6382    1.3516 H   0  0  0  0  0  0
   -3.3201    0.5896    3.2287 H   0  0  0  0  0  0
   -4.6749    1.5754    2.8193 H   0  0  0  0  0  0
   -3.0340    2.2166    2.5526 H   0  0  0  0  0  0
   -2.0467   -1.2104    2.4642 H   0  0  0  0  0  0
   -1.2661    0.3639    2.2807 H   0  0  0  0  0  0
    3.2786   -3.6849   -0.1946 H   0  0  0  0  0  0
    5.6119   -3.4802   -0.9744 H   0  0  0  0  0  0
    7.7842   -1.4861   -1.4467 H   0  0  0  0  0  0
    7.8034    1.2020   -1.0769 H   0  0  0  0  0  0
    4.5735    2.5385   -0.7657 H   0  0  0  0  0  0
    6.2641    2.9087   -0.3138 H   0  0  0  0  0  0
    5.1344    2.2962    0.9277 H   0  0  0  0  0  0
    3.0698    0.5853    0.4371 H   0  0  0  0  0  0
  1  2  1  0  0  0
  1 29  1  0  0  0
  1 30  1  0  0  0
  1 31  1  0  0  0
  2  3  2  0  0  0
  2 12  1  0  0  0
  3  4  1  0  0  0
  4  5  2  0  0  0
  4  9  1  0  0  0
  5  6  1  0  0  0
  5 32  1  0  0  0
  6  7  2  0  0  0
  6 33  1  0  0  0
  7  8  1  0  0  0
  7 34  1  0  0  0
  8  9  2  0  0  0
  8 35  1  0  0  0
  9 10  1  0  0  0
 10 11  1  0  0  0
 10 12  2  0  0  0
 11 36  1  0  0  0
 11 37  1  0  0  0
 11 38  1  0  0  0
 12 13  1  0  0  0
 13 14  1  0  0  0
 13 39  1  0  0  0
 13 40  1  0  0  0
 14 15  2  0  0  0
 14 28  1  0  0  0
 15 16  1  0  0  0
 16 17  1  0  0  0
 16 27  2  0  0  0
 17 18  2  0  0  0
 17 26  1  0  0  0
 18 19  1  0  0  0
 18 41  1  0  0  0
 19 20  2  0  0  0
 19 42  1  0  0  0
 20 21  1  0  0  0
 20 25  1  0  0  0
 21 22  2  0  0  0
 21 43  1  0  0  0
 22 23  1  0  0  0
 22 44  1  0  0  0
 23 24  1  0  0  0
 23 25  1  0  0  0
 24 45  1  0  0  0
 24 46  1  0  0  0
 24 47  1  0  0  0
 25 26  2  0  0  0
 26 48  1  0  0  0
 27 28  1  0  0  0
M  END
> <energy>
95.3672

> <i_ionizer_Ion_state_n>
0

> <i_ionizer_Tot_Q>
0

> <s_ionizer_Ion_centers>


> <s_ionizer_Ion_types>


> <s_ionizer_Ion_ctrs_in>


> <r_ionizer_Ionization_penalty>
0

> <r_ionizer_Ionization_penalty_charging>
0

> <r_ionizer_Ionization_penalty_neutral>
0

$$$$
ZINC001211863998
                    3D
 Schrodinger Suite 2019-4.
 47 51  0  0  1  0            999 V2000
   -1.3662   -2.0854   -2.3992 C   0  0  0  0  0  0
   -1.9499   -1.3103   -1.2505 C   0  0  0  0  0  0
   -2.5486   -0.1480   -1.6000 N   0  0  0  0  0  0
   -3.0233    0.6565   -0.6405 C   0  0  0  0  0  0
   -3.5275    1.8925   -1.0255 C   0  0  0  0  0  0
   -4.0244    2.8132   -0.1018 C   0  0  0  0  0  0
   -4.0216    2.4922    1.2456 C   0  0  0  0  0  0
   -3.5227    1.2556    1.6559 C   0  0  0  0  0  0
   -3.0073    0.3130    0.7297 C   0  0  0  0  0  0
   -2.4381   -0.9424    1.0867 C   0  0  0  0  0  0
   -2.3752   -1.3758    2.5336 C   0  0  0  0  0  0
   -1.8384   -1.7405    0.0809 C   0  0  0  0  0  0
   -0.9197   -2.9041    0.4243 C   0  0  0  0  0  0
    0.4875   -2.4257    0.5272 C   0  0  0  0  0  0
    0.9525   -1.3573    1.1290 N   0  0  0  0  0  0
    2.2426   -1.2871    0.6517 C   0  0  0  0  0  0
    3.0842   -0.1188    0.8840 C   0  0  0  0  0  0
    3.4395    0.0938    2.1845 N   0  0  0  0  0  0
    4.1986    1.1748    2.4464 C   0  0  0  0  0  0
    4.6223    2.0640    1.4781 C   0  0  0  0  0  0
    4.2461    1.8295    0.1571 C   0  0  0  0  0  0
    3.4489    0.7233   -0.1859 C   0  0  0  0  0  0
    3.0507    0.4698   -1.6289 C   0  0  0  0  0  0
    1.6020    0.5812   -2.0543 C   0  0  0  0  0  0
    2.5937    1.5998   -2.5228 C   0  0  0  0  0  0
    2.5913   -2.3238   -0.1323 N   0  0  0  0  0  0
    1.4248   -3.0830   -0.2125 O   0  0  0  0  0  0
   -1.5669   -1.5830   -3.3531 H   0  0  0  0  0  0
   -0.2807   -2.1720   -2.2943 H   0  0  0  0  0  0
   -1.8069   -3.0860   -2.4541 H   0  0  0  0  0  0
   -3.5145    2.1550   -2.0812 H   0  0  0  0  0  0
   -4.3979    3.7752   -0.4391 H   0  0  0  0  0  0
   -4.3950    3.2015    1.9808 H   0  0  0  0  0  0
   -3.5180    1.0534    2.7239 H   0  0  0  0  0  0
   -2.5122   -2.4558    2.6284 H   0  0  0  0  0  0
   -1.4182   -1.0833    2.9747 H   0  0  0  0  0  0
   -3.1861   -0.9529    3.1331 H   0  0  0  0  0  0
   -1.0077   -3.6942   -0.3320 H   0  0  0  0  0  0
   -1.1985   -3.3918    1.3615 H   0  0  0  0  0  0
    4.4684    1.3095    3.4897 H   0  0  0  0  0  0
    5.2313    2.9212    1.7400 H   0  0  0  0  0  0
    4.5709    2.5211   -0.6164 H   0  0  0  0  0  0
    3.6281   -0.3145   -2.1194 H   0  0  0  0  0  0
    0.8527    0.9014   -1.3367 H   0  0  0  0  0  0
    1.2313   -0.1300   -2.7839 H   0  0  0  0  0  0
    2.4968    2.6012   -2.1206 H   0  0  0  0  0  0
    2.9011    1.5669   -3.5618 H   0  0  0  0  0  0
  1  2  1  0  0  0
  1 28  1  0  0  0
  1 29  1  0  0  0
  1 30  1  0  0  0
  2  3  2  0  0  0
  2 12  1  0  0  0
  3  4  1  0  0  0
  4  5  2  0  0  0
  4  9  1  0  0  0
  5  6  1  0  0  0
  5 31  1  0  0  0
  6  7  2  0  0  0
  6 32  1  0  0  0
  7  8  1  0  0  0
  7 33  1  0  0  0
  8  9  2  0  0  0
  8 34  1  0  0  0
  9 10  1  0  0  0
 10 11  1  0  0  0
 10 12  2  0  0  0
 11 35  1  0  0  0
 11 36  1  0  0  0
 11 37  1  0  0  0
 12 13  1  0  0  0
 13 14  1  0  0  0
 13 38  1  0  0  0
 13 39  1  0  0  0
 14 15  2  0  0  0
 14 27  1  0  0  0
 15 16  1  0  0  0
 16 17  1  0  0  0
 16 26  2  0  0  0
 17 18  2  0  0  0
 17 22  1  0  0  0
 18 19  1  0  0  0
 19 20  2  0  0  0
 19 40  1  0  0  0
 20 21  1  0  0  0
 20 41  1  0  0  0
 21 22  2  0  0  0
 21 42  1  0  0  0
 22 23  1  0  0  0
 23 24  1  0  0  0
 23 25  1  0  0  0
 23 43  1  0  0  0
 24 25  1  0  0  0
 24 44  1  0  0  0
 24 45  1  0  0  0
 25 46  1  0  0  0
 25 47  1  0  0  0
 26 27  1  0  0  0
M  END
> <energy>
141.952

> <i_ionizer_Ion_state_n>
0

> <i_ionizer_Tot_Q>
0

> <s_ionizer_Ion_centers>


> <s_ionizer_Ion_types>


> <s_ionizer_Ion_ctrs_in>


> <r_ionizer_Ionization_penalty>
0.00741239

> <r_ionizer_Ionization_penalty_charging>
0

> <r_ionizer_Ionization_penalty_neutral>
0.00741239

$$$$
ZINC001211863999
                    3D
 Schrodinger Suite 2019-4.
 47 51  0  0  1  0            999 V2000
   -2.0438    1.3155   -2.7841 C   0  0  0  0  0  0
   -2.6545    0.8992   -1.4746 C   0  0  0  0  0  0
   -3.0823    1.9332   -0.7130 N   0  0  0  0  0  0
   -3.5711    1.6923    0.5091 C   0  0  0  0  0  0
   -3.9054    2.7857    1.2952 C   0  0  0  0  0  0
   -4.3825    2.6414    2.5988 C   0  0  0  0  0  0
   -4.5527    1.3729    3.1265 C   0  0  0  0  0  0
   -4.2350    0.2595    2.3491 C   0  0  0  0  0  0
   -3.7295    0.3934    1.0282 C   0  0  0  0  0  0
   -3.3388   -0.6986    0.1969 C   0  0  0  0  0  0
   -3.4761   -2.1038    0.7325 C   0  0  0  0  0  0
   -2.7479   -0.4403   -1.0679 C   0  0  0  0  0  0
   -2.1057   -1.5410   -1.8916 C   0  0  0  0  0  0
   -0.7542   -1.8693   -1.3688 C   0  0  0  0  0  0
    0.3519   -1.1692   -1.4497 N   0  0  0  0  0  0
    1.1887   -1.8441   -0.5924 C   0  0  0  0  0  0
    2.4830   -1.2969   -0.2212 C   0  0  0  0  0  0
    2.9806   -1.4762    1.0900 C   0  0  0  0  0  0
    4.1749   -0.8721    1.4997 C   0  0  0  0  0  0
    4.8715   -0.1015    0.5844 C   0  0  0  0  0  0
    4.3795    0.0547   -0.7069 C   0  0  0  0  0  0
    3.1999   -0.5203   -1.1399 C   0  0  0  0  0  0
    5.2927    0.9144   -1.4443 C   0  0  0  0  0  0
    5.1329    1.2439   -2.6057 O   0  0  0  0  0  0
    6.4414    1.3096   -0.5495 C   0  0  0  0  0  0
    6.1345    0.6651    0.8139 C   0  0  0  0  0  0
    0.6636   -2.9706   -0.0831 N   0  0  0  0  0  0
   -0.6312   -2.9914   -0.6033 O   0  0  0  0  0  0
   -2.0454    2.4074   -2.8831 H   0  0  0  0  0  0
   -1.0040    0.9844   -2.8517 H   0  0  0  0  0  0
   -2.6195    0.9063   -3.6195 H   0  0  0  0  0  0
   -3.7723    3.7832    0.8805 H   0  0  0  0  0  0
   -4.6114    3.5220    3.1911 H   0  0  0  0  0  0
   -4.9226    1.2459    4.1406 H   0  0  0  0  0  0
   -4.3679   -0.7206    2.7976 H   0  0  0  0  0  0
   -3.4249   -2.8682   -0.0446 H   0  0  0  0  0  0
   -2.6858   -2.2973    1.4629 H   0  0  0  0  0  0
   -4.4537   -2.2459    1.2043 H   0  0  0  0  0  0
   -2.0047   -1.2408   -2.9389 H   0  0  0  0  0  0
   -2.7467   -2.4264   -1.9307 H   0  0  0  0  0  0
    2.4107   -2.0571    1.8142 H   0  0  0  0  0  0
    4.5276   -0.9943    2.5202 H   0  0  0  0  0  0
    2.8385   -0.3512   -2.1521 H   0  0  0  0  0  0
    6.4877    2.3987   -0.4647 H   0  0  0  0  0  0
    7.3823    0.9328   -0.9627 H   0  0  0  0  0  0
    6.9448    0.0011    1.1295 H   0  0  0  0  0  0
    5.9829    1.4346    1.5790 H   0  0  0  0  0  0
  1  2  1  0  0  0
  1 29  1  0  0  0
  1 30  1  0  0  0
  1 31  1  0  0  0
  2  3  2  0  0  0
  2 12  1  0  0  0
  3  4  1  0  0  0
  4  5  2  0  0  0
  4  9  1  0  0  0
  5  6  1  0  0  0
  5 32  1  0  0  0
  6  7  2  0  0  0
  6 33  1  0  0  0
  7  8  1  0  0  0
  7 34  1  0  0  0
  8  9  2  0  0  0
  8 35  1  0  0  0
  9 10  1  0  0  0
 10 11  1  0  0  0
 10 12  2  0  0  0
 11 36  1  0  0  0
 11 37  1  0  0  0
 11 38  1  0  0  0
 12 13  1  0  0  0
 13 14  1  0  0  0
 13 39  1  0  0  0
 13 40  1  0  0  0
 14 15  2  0  0  0
 14 28  1  0  0  0
 15 16  1  0  0  0
 16 17  1  0  0  0
 16 27  2  0  0  0
 17 18  2  0  0  0
 17 22  1  0  0  0
 18 19  1  0  0  0
 18 41  1  0  0  0
 19 20  2  0  0  0
 19 42  1  0  0  0
 20 21  1  0  0  0
 20 26  1  0  0  0
 21 22  2  0  0  0
 21 23  1  0  0  0
 22 43  1  0  0  0
 23 24  2  0  0  0
 23 25  1  0  0  0
 25 26  1  0  0  0
 25 44  1  0  0  0
 25 45  1  0  0  0
 26 46  1  0  0  0
 26 47  1  0  0  0
 27 28  1  0  0  0
M  END
> <energy>
100.204

> <i_ionizer_Ion_state_n>
0

> <i_ionizer_Tot_Q>
0

> <s_ionizer_Ion_centers>


> <s_ionizer_Ion_types>


> <s_ionizer_Ion_ctrs_in>


> <r_ionizer_Ionization_penalty>
0

> <r_ionizer_Ionization_penalty_charging>
0

> <r_ionizer_Ionization_penalty_neutral>
0

$$$$
ZINC001211864000
                    3D
 Schrodinger Suite 2019-4.
 45 48  0  0  1  0            999 V2000
    4.8569    4.0927   -0.8668 C   0  0  0  0  0  0
    4.7337    3.5603    0.4526 O   0  0  0  0  0  0
    4.1922    2.3016    0.4848 C   0  0  0  0  0  0
    3.3249    2.0628    1.5481 C   0  0  0  0  0  0
    2.6732    0.8350    1.6412 C   0  0  0  0  0  0
    2.8983   -0.1615    0.6743 C   0  0  0  0  0  0
    2.0871   -1.3599    0.6978 C   0  0  0  0  0  0
    1.6872   -1.9738    1.8229 N   0  0  0  0  0  0
    0.6549   -2.8005    1.3895 O   0  0  0  0  0  0
    0.5465   -2.5984    0.0430 C   0  0  0  0  0  0
   -0.6895   -3.1010   -0.6105 C   0  0  0  0  0  0
   -1.8431   -2.1329   -0.3657 C   0  0  0  0  0  0
   -2.8035   -2.4177    0.6133 C   0  0  0  0  0  0
   -2.8191   -3.7120    1.3755 C   0  0  0  0  0  0
   -3.7398   -1.5249    1.0166 N   0  0  0  0  0  0
   -3.7435   -0.2948    0.4967 C   0  0  0  0  0  0
   -4.6543    0.6219    1.0110 C   0  0  0  0  0  0
   -4.7276    1.9314    0.5377 C   0  0  0  0  0  0
   -3.8557    2.3457   -0.4607 C   0  0  0  0  0  0
   -2.9268    1.4418   -0.9811 C   0  0  0  0  0  0
   -2.8514    0.1045   -0.5229 C   0  0  0  0  0  0
   -1.9101   -0.8597   -0.9929 C   0  0  0  0  0  0
   -0.9512   -0.4839   -2.1042 C   0  0  0  0  0  0
    1.4732   -1.8074   -0.4449 N   0  0  0  0  0  0
    3.8085    0.0619   -0.3633 C   0  0  0  0  0  0
    4.4584    1.2874   -0.4419 C   0  0  0  0  0  0
    5.3321    1.4808   -1.4438 F   0  0  0  0  0  0
    4.0427    3.7764   -1.5332 H   0  0  0  0  0  0
    5.8279    3.8214   -1.2922 H   0  0  0  0  0  0
    4.8033    5.1815   -0.7900 H   0  0  0  0  0  0
    3.1302    2.8446    2.2817 H   0  0  0  0  0  0
    1.9443    0.6790    2.4370 H   0  0  0  0  0  0
   -0.9044   -4.1001   -0.2160 H   0  0  0  0  0  0
   -0.5346   -3.2515   -1.6837 H   0  0  0  0  0  0
   -3.7362   -3.7966    1.9742 H   0  0  0  0  0  0
   -2.7919   -4.5706    0.6952 H   0  0  0  0  0  0
   -1.9584   -3.7438    2.0535 H   0  0  0  0  0  0
   -5.3127    0.3108    1.8225 H   0  0  0  0  0  0
   -5.4463    2.6242    0.9615 H   0  0  0  0  0  0
   -3.8872    3.3690   -0.8267 H   0  0  0  0  0  0
   -2.2369    1.8085   -1.7388 H   0  0  0  0  0  0
   -0.1446    0.1543   -1.7274 H   0  0  0  0  0  0
   -0.5131   -1.3601   -2.5888 H   0  0  0  0  0  0
   -1.4831    0.0424   -2.9063 H   0  0  0  0  0  0
    3.9896   -0.6885   -1.1290 H   0  0  0  0  0  0
  1  2  1  0  0  0
  1 28  1  0  0  0
  1 29  1  0  0  0
  1 30  1  0  0  0
  2  3  1  0  0  0
  3  4  2  0  0  0
  3 26  1  0  0  0
  4  5  1  0  0  0
  4 31  1  0  0  0
  5  6  2  0  0  0
  5 32  1  0  0  0
  6  7  1  0  0  0
  6 25  1  0  0  0
  7  8  2  0  0  0
  7 24  1  0  0  0
  8  9  1  0  0  0
  9 10  1  0  0  0
 10 11  1  0  0  0
 10 24  2  0  0  0
 11 12  1  0  0  0
 11 33  1  0  0  0
 11 34  1  0  0  0
 12 13  1  0  0  0
 12 22  2  0  0  0
 13 14  1  0  0  0
 13 15  2  0  0  0
 14 35  1  0  0  0
 14 36  1  0  0  0
 14 37  1  0  0  0
 15 16  1  0  0  0
 16 17  1  0  0  0
 16 21  2  0  0  0
 17 18  2  0  0  0
 17 38  1  0  0  0
 18 19  1  0  0  0
 18 39  1  0  0  0
 19 20  2  0  0  0
 19 40  1  0  0  0
 20 21  1  0  0  0
 20 41  1  0  0  0
 21 22  1  0  0  0
 22 23  1  0  0  0
 23 42  1  0  0  0
 23 43  1  0  0  0
 23 44  1  0  0  0
 25 26  2  0  0  0
 25 45  1  0  0  0
 26 27  1  0  0  0
M  END
> <energy>
101.779

> <i_ionizer_Ion_state_n>
0

> <i_ionizer_Tot_Q>
0

> <s_ionizer_Ion_centers>


> <s_ionizer_Ion_types>


> <s_ionizer_Ion_ctrs_in>


> <r_ionizer_Ionization_penalty>
0.00741239

> <r_ionizer_Ionization_penalty_charging>
0

> <r_ionizer_Ionization_penalty_neutral>
0.00741239

$$$$
ZINC001211864005
                    3D
 Schrodinger Suite 2019-4.
 41 44  0  0  1  0            999 V2000
   -2.3568   -2.3174   -2.3331 C   0  0  0  0  0  0
   -2.3505   -1.2282   -1.2969 C   0  0  0  0  0  0
   -2.9199   -0.0695   -1.7020 N   0  0  0  0  0  0
   -2.8901    0.9943   -0.8904 C   0  0  0  0  0  0
   -3.3892    2.1966   -1.3755 C   0  0  0  0  0  0
   -3.3636    3.3658   -0.6159 C   0  0  0  0  0  0
   -2.8301    3.3392    0.6625 C   0  0  0  0  0  0
   -2.3360    2.1402    1.1745 C   0  0  0  0  0  0
   -2.3538    0.9451    0.4117 C   0  0  0  0  0  0
   -1.8317   -0.3027    0.8661 C   0  0  0  0  0  0
   -1.2925   -0.3976    2.2764 C   0  0  0  0  0  0
   -1.7709   -1.3994   -0.0310 C   0  0  0  0  0  0
   -0.9552   -2.6475    0.2731 C   0  0  0  0  0  0
    0.4887   -2.3850    0.0246 C   0  0  0  0  0  0
    1.2984   -1.5747    0.6651 N   0  0  0  0  0  0
    2.3746   -1.5031   -0.1820 C   0  0  0  0  0  0
    3.3799   -0.4808   -0.0043 C   0  0  0  0  0  0
    3.6192    0.4564   -1.0234 C   0  0  0  0  0  0
    4.4672    1.5414   -0.7918 C   0  0  0  0  0  0
    5.0886    1.6745    0.4480 C   0  0  0  0  0  0
    5.8831    2.7292    0.6689 F   0  0  0  0  0  0
    4.8781    0.7359    1.4517 C   0  0  0  0  0  0
    5.4814    0.8780    2.6397 F   0  0  0  0  0  0
    4.0215   -0.3353    1.2281 C   0  0  0  0  0  0
    3.8152   -1.2237    2.2117 F   0  0  0  0  0  0
    2.2929   -2.3097   -1.2502 N   0  0  0  0  0  0
    1.0371   -2.9050   -1.1134 O   0  0  0  0  0  0
   -1.3327   -2.6022   -2.5860 H   0  0  0  0  0  0
   -2.9030   -3.1903   -1.9629 H   0  0  0  0  0  0
   -2.8499   -1.9832   -3.2540 H   0  0  0  0  0  0
   -3.7916    2.2293   -2.3877 H   0  0  0  0  0  0
   -3.7538    4.2919   -1.0316 H   0  0  0  0  0  0
   -2.7915    4.2461    1.2627 H   0  0  0  0  0  0
   -1.9084    2.1533    2.1727 H   0  0  0  0  0  0
   -0.3590    0.1642    2.3703 H   0  0  0  0  0  0
   -2.0299    0.0024    2.9805 H   0  0  0  0  0  0
   -1.1043   -1.4176    2.6083 H   0  0  0  0  0  0
   -1.2901   -3.4984   -0.3321 H   0  0  0  0  0  0
   -1.1081   -2.9796    1.3058 H   0  0  0  0  0  0
    3.1029    0.3736   -1.9799 H   0  0  0  0  0  0
    4.6335    2.2934   -1.5587 H   0  0  0  0  0  0
  1  2  1  0  0  0
  1 28  1  0  0  0
  1 29  1  0  0  0
  1 30  1  0  0  0
  2  3  2  0  0  0
  2 12  1  0  0  0
  3  4  1  0  0  0
  4  5  2  0  0  0
  4  9  1  0  0  0
  5  6  1  0  0  0
  5 31  1  0  0  0
  6  7  2  0  0  0
  6 32  1  0  0  0
  7  8  1  0  0  0
  7 33  1  0  0  0
  8  9  2  0  0  0
  8 34  1  0  0  0
  9 10  1  0  0  0
 10 11  1  0  0  0
 10 12  2  0  0  0
 11 35  1  0  0  0
 11 36  1  0  0  0
 11 37  1  0  0  0
 12 13  1  0  0  0
 13 14  1  0  0  0
 13 38  1  0  0  0
 13 39  1  0  0  0
 14 15  2  0  0  0
 14 27  1  0  0  0
 15 16  1  0  0  0
 16 17  1  0  0  0
 16 26  2  0  0  0
 17 18  2  0  0  0
 17 24  1  0  0  0
 18 19  1  0  0  0
 18 40  1  0  0  0
 19 20  2  0  0  0
 19 41  1  0  0  0
 20 21  1  0  0  0
 20 22  1  0  0  0
 22 23  1  0  0  0
 22 24  2  0  0  0
 24 25  1  0  0  0
 26 27  1  0  0  0
M  END
> <energy>
91.1262

> <i_ionizer_Ion_state_n>
0

> <i_ionizer_Tot_Q>
0

> <s_ionizer_Ion_centers>


> <s_ionizer_Ion_types>


> <s_ionizer_Ion_ctrs_in>


> <r_ionizer_Ionization_penalty>
0

> <r_ionizer_Ionization_penalty_charging>
0

> <r_ionizer_Ionization_penalty_neutral>
0

$$$$
ZINC001211864010
                    3D
 Schrodinger Suite 2019-4.
 48 51  0  0  1  0            999 V2000
    4.9786    2.3311    2.1941 C   0  0  0  0  0  0
    4.8688    1.0045    2.7098 O   0  0  0  0  0  0
    3.9150    0.2570    2.0737 C   0  0  0  0  0  0
    2.6616    0.7372    1.7248 C   0  0  0  0  0  0
    1.7869   -0.0964    1.0344 C   0  0  0  0  0  0
    2.1327   -1.4219    0.6775 C   0  0  0  0  0  0
    1.1578   -2.1421   -0.1436 C   0  0  0  0  0  0
    1.4266   -3.0799   -1.0696 N   0  0  0  0  0  0
    0.2326   -3.1782   -1.8005 O   0  0  0  0  0  0
   -0.6389   -2.3016   -1.2257 C   0  0  0  0  0  0
   -1.8996   -1.9710   -1.9538 C   0  0  0  0  0  0
   -2.3134   -0.5281   -1.6690 C   0  0  0  0  0  0
   -1.6096    0.5272   -2.2767 C   0  0  0  0  0  0
   -0.5945    0.2968   -3.3619 C   0  0  0  0  0  0
   -1.7530    1.8185   -1.9047 N   0  0  0  0  0  0
   -2.5720    2.1171   -0.8930 C   0  0  0  0  0  0
   -2.6118    3.4413   -0.4758 C   0  0  0  0  0  0
   -3.4198    3.8624    0.5787 C   0  0  0  0  0  0
   -4.2049    2.9349    1.2435 C   0  0  0  0  0  0
   -4.1765    1.5975    0.8426 C   0  0  0  0  0  0
   -3.3661    1.1546   -0.2314 C   0  0  0  0  0  0
   -3.2684   -0.1968   -0.6719 C   0  0  0  0  0  0
   -4.1088   -1.2856   -0.0425 C   0  0  0  0  0  0
   -0.1531   -1.7251   -0.1553 N   0  0  0  0  0  0
    3.3816   -1.9252    1.0869 C   0  0  0  0  0  0
    3.8720   -3.3055    0.7542 C   0  0  0  0  0  0
    4.2508   -1.0703    1.7966 C   0  0  0  0  0  0
    5.9287    2.7493    2.5418 H   0  0  0  0  0  0
    4.1737    2.9691    2.5758 H   0  0  0  0  0  0
    4.9974    2.3420    1.0955 H   0  0  0  0  0  0
    2.3397    1.7447    1.9674 H   0  0  0  0  0  0
    0.8156    0.3114    0.7471 H   0  0  0  0  0  0
   -1.7638   -2.1043   -3.0336 H   0  0  0  0  0  0
   -2.6751   -2.6870   -1.6743 H   0  0  0  0  0  0
    0.2762   -0.2367   -2.9719 H   0  0  0  0  0  0
   -0.2406    1.2484   -3.7738 H   0  0  0  0  0  0
   -1.0366   -0.2686   -4.1874 H   0  0  0  0  0  0
   -1.9808    4.1700   -0.9833 H   0  0  0  0  0  0
   -3.4255    4.9056    0.8811 H   0  0  0  0  0  0
   -4.8292    3.2421    2.0787 H   0  0  0  0  0  0
   -4.7899    0.9007    1.4077 H   0  0  0  0  0  0
   -4.4726   -1.9797   -0.8069 H   0  0  0  0  0  0
   -3.5279   -1.8289    0.7080 H   0  0  0  0  0  0
   -5.0189   -0.9052    0.4294 H   0  0  0  0  0  0
    4.7444   -3.5697    1.3616 H   0  0  0  0  0  0
    3.1082   -4.0593    0.9650 H   0  0  0  0  0  0
    4.1772   -3.3650   -0.2941 H   0  0  0  0  0  0
    5.2250   -1.4312    2.1248 H   0  0  0  0  0  0
  1  2  1  0  0  0
  1 28  1  0  0  0
  1 29  1  0  0  0
  1 30  1  0  0  0
  2  3  1  0  0  0
  3  4  2  0  0  0
  3 27  1  0  0  0
  4  5  1  0  0  0
  4 31  1  0  0  0
  5  6  2  0  0  0
  5 32  1  0  0  0
  6  7  1  0  0  0
  6 25  1  0  0  0
  7  8  2  0  0  0
  7 24  1  0  0  0
  8  9  1  0  0  0
  9 10  1  0  0  0
 10 11  1  0  0  0
 10 24  2  0  0  0
 11 12  1  0  0  0
 11 33  1  0  0  0
 11 34  1  0  0  0
 12 13  1  0  0  0
 12 22  2  0  0  0
 13 14  1  0  0  0
 13 15  2  0  0  0
 14 35  1  0  0  0
 14 36  1  0  0  0
 14 37  1  0  0  0
 15 16  1  0  0  0
 16 17  1  0  0  0
 16 21  2  0  0  0
 17 18  2  0  0  0
 17 38  1  0  0  0
 18 19  1  0  0  0
 18 39  1  0  0  0
 19 20  2  0  0  0
 19 40  1  0  0  0
 20 21  1  0  0  0
 20 41  1  0  0  0
 21 22  1  0  0  0
 22 23  1  0  0  0
 23 42  1  0  0  0
 23 43  1  0  0  0
 23 44  1  0  0  0
 25 26  1  0  0  0
 25 27  2  0  0  0
 26 45  1  0  0  0
 26 46  1  0  0  0
 26 47  1  0  0  0
 27 48  1  0  0  0
M  END
> <energy>
104.953

> <i_ionizer_Ion_state_n>
0

> <i_ionizer_Tot_Q>
0

> <s_ionizer_Ion_centers>


> <s_ionizer_Ion_types>


> <s_ionizer_Ion_ctrs_in>


> <r_ionizer_Ionization_penalty>
0.00741239

> <r_ionizer_Ionization_penalty_charging>
0

> <r_ionizer_Ionization_penalty_neutral>
0.00741239

$$$$
ZINC001211864015
                    3D
 Schrodinger Suite 2019-4.
 50 54  0  0  1  0            999 V2000
   -4.4420   -2.8534    0.1307 C   0  0  0  0  0  0
   -3.9833   -1.4470   -0.1386 C   0  0  0  0  0  0
   -4.5500   -0.5164    0.6649 N   0  0  0  0  0  0
   -4.1848    0.7651    0.5471 C   0  0  0  0  0  0
   -4.7390    1.6793    1.4331 C   0  0  0  0  0  0
   -4.4088    3.0358    1.3982 C   0  0  0  0  0  0
   -3.4991    3.4908    0.4570 C   0  0  0  0  0  0
   -2.9361    2.5869   -0.4458 C   0  0  0  0  0  0
   -3.2668    1.2084   -0.4241 C   0  0  0  0  0  0
   -2.7191    0.2366   -1.3097 C   0  0  0  0  0  0
   -1.7596    0.6843   -2.3882 C   0  0  0  0  0  0
   -3.0433   -1.1342   -1.1305 C   0  0  0  0  0  0
   -2.3510   -2.2352   -1.9199 C   0  0  0  0  0  0
   -0.9277   -2.4403   -1.5243 C   0  0  0  0  0  0
   -0.1274   -1.6605   -0.8378 N   0  0  0  0  0  0
    1.0812   -2.3104   -0.9075 C   0  0  0  0  0  0
    2.2827   -1.6995   -0.3682 C   0  0  0  0  0  0
    3.5551   -2.1626   -0.6672 C   0  0  0  0  0  0
    4.7031   -1.5600   -0.2586 N   0  0  0  0  0  0
    4.5872   -0.4251    0.4788 C   0  0  0  0  0  0
    3.3531    0.0985    0.8703 C   0  0  0  0  0  0
    2.1947   -0.5519    0.4272 C   0  0  0  0  0  0
    3.2260    1.3843    1.6459 C   0  0  0  0  0  0
    4.5459    1.8849    2.2294 C   0  0  0  0  0  0
    5.6743    1.7315    1.2179 C   0  0  0  0  0  0
    5.8740    0.2550    0.8722 C   0  0  0  0  0  0
    1.0303   -3.4742   -1.5784 N   0  0  0  0  0  0
   -0.3043   -3.5634   -1.9894 O   0  0  0  0  0  0
   -3.5942   -3.4815    0.4223 H   0  0  0  0  0  0
   -4.9286   -3.2772   -0.7550 H   0  0  0  0  0  0
   -5.1714   -2.8771    0.9496 H   0  0  0  0  0  0
   -5.4488    1.3228    2.1781 H   0  0  0  0  0  0
   -4.8640    3.7246    2.1048 H   0  0  0  0  0  0
   -3.2253    4.5427    0.4229 H   0  0  0  0  0  0
   -2.2207    2.9765   -1.1657 H   0  0  0  0  0  0
   -2.1699    1.5425   -2.9309 H   0  0  0  0  0  0
   -0.7940    0.9596   -1.9504 H   0  0  0  0  0  0
   -1.5838   -0.0757   -3.1509 H   0  0  0  0  0  0
   -2.8786   -3.1884   -1.8244 H   0  0  0  0  0  0
   -2.4088   -2.0046   -2.9900 H   0  0  0  0  0  0
    3.7109   -3.0448   -1.2839 H   0  0  0  0  0  0
    1.2180   -0.1404    0.6821 H   0  0  0  0  0  0
    2.8323    2.1474    0.9641 H   0  0  0  0  0  0
    2.5012    1.2623    2.4582 H   0  0  0  0  0  0
    4.7880    1.3220    3.1397 H   0  0  0  0  0  0
    4.4415    2.9349    2.5262 H   0  0  0  0  0  0
    6.6067    2.1436    1.6222 H   0  0  0  0  0  0
    5.4355    2.3046    0.3125 H   0  0  0  0  0  0
    6.2965   -0.2731    1.7345 H   0  0  0  0  0  0
    6.5920    0.1716    0.0497 H   0  0  0  0  0  0
  1  2  1  0  0  0
  1 29  1  0  0  0
  1 30  1  0  0  0
  1 31  1  0  0  0
  2  3  2  0  0  0
  2 12  1  0  0  0
  3  4  1  0  0  0
  4  5  2  0  0  0
  4  9  1  0  0  0
  5  6  1  0  0  0
  5 32  1  0  0  0
  6  7  2  0  0  0
  6 33  1  0  0  0
  7  8  1  0  0  0
  7 34  1  0  0  0
  8  9  2  0  0  0
  8 35  1  0  0  0
  9 10  1  0  0  0
 10 11  1  0  0  0
 10 12  2  0  0  0
 11 36  1  0  0  0
 11 37  1  0  0  0
 11 38  1  0  0  0
 12 13  1  0  0  0
 13 14  1  0  0  0
 13 39  1  0  0  0
 13 40  1  0  0  0
 14 15  2  0  0  0
 14 28  1  0  0  0
 15 16  1  0  0  0
 16 17  1  0  0  0
 16 27  2  0  0  0
 17 18  2  0  0  0
 17 22  1  0  0  0
 18 19  1  0  0  0
 18 41  1  0  0  0
 19 20  2  0  0  0
 20 21  1  0  0  0
 20 26  1  0  0  0
 21 22  2  0  0  0
 21 23  1  0  0  0
 22 42  1  0  0  0
 23 24  1  0  0  0
 23 43  1  0  0  0
 23 44  1  0  0  0
 24 25  1  0  0  0
 24 45  1  0  0  0
 24 46  1  0  0  0
 25 26  1  0  0  0
 25 47  1  0  0  0
 25 48  1  0  0  0
 26 49  1  0  0  0
 26 50  1  0  0  0
 27 28  1  0  0  0
M  END
> <energy>
93.0383

> <i_ionizer_Ion_state_n>
0

> <i_ionizer_Tot_Q>
0

> <s_ionizer_Ion_centers>


> <s_ionizer_Ion_types>


> <s_ionizer_Ion_ctrs_in>


> <r_ionizer_Ionization_penalty>
0.00741239

> <r_ionizer_Ionization_penalty_charging>
0

> <r_ionizer_Ionization_penalty_neutral>
0.00741239

$$$$
ZINC001211864019
                    3D
 Schrodinger Suite 2019-4.
 44 47  0  0  1  0            999 V2000
    3.7733   -0.3447   -1.2526 C   0  0  0  0  0  0
    3.2284    0.5183   -0.0984 C   0  0  0  0  0  0
    2.1949    1.4988   -0.6971 C   0  0  0  0  0  0
    4.3885    1.3748    0.4545 C   0  0  0  0  0  0
    2.5835   -0.3950    0.9556 C   0  0  0  0  0  0
    3.1722   -0.6863    2.1914 C   0  0  0  0  0  0
    2.5093   -1.5000    3.1066 C   0  0  0  0  0  0
    1.2906   -2.0383    2.9018 N   0  0  0  0  0  0
    0.7172   -1.7501    1.7146 C   0  0  0  0  0  0
   -0.6829   -2.0756    1.5114 C   0  0  0  0  0  0
   -1.1841   -3.2918    1.2292 N   0  0  0  0  0  0
   -2.4852   -3.0072    0.7835 O   0  0  0  0  0  0
   -2.6247   -1.6536    0.8515 C   0  0  0  0  0  0
   -3.7923   -1.0218    0.1842 C   0  0  1  0  0  0
   -4.4602    0.0284    1.1069 C   0  0  0  0  0  0
   -3.8934    1.3482    0.6381 C   0  0  0  0  0  0
   -3.9664    2.4213    1.2081 O   0  0  0  0  0  0
   -3.3028    1.1679   -0.6794 C   0  0  0  0  0  0
   -2.8143    2.1376   -1.5337 C   0  0  0  0  0  0
   -2.2795    1.6964   -2.7392 C   0  0  0  0  0  0
   -1.6618    2.8535   -3.8532 Cl  0  0  0  0  0  0
   -2.2334    0.3272   -3.0570 C   0  0  0  0  0  0
   -2.7486   -0.6298   -2.1761 C   0  0  0  0  0  0
   -3.2978   -0.1933   -0.9817 C   0  0  0  0  0  0
   -1.5779   -1.0460    1.3420 N   0  0  0  0  0  0
    1.3337   -0.9807    0.7235 C   0  0  0  0  0  0
    4.2921    0.2787   -1.9898 H   0  0  0  0  0  0
    4.4807   -1.1029   -0.8960 H   0  0  0  0  0  0
    2.9671   -0.8679   -1.7818 H   0  0  0  0  0  0
    2.6789    2.2187   -1.3659 H   0  0  0  0  0  0
    1.6728    2.0624    0.0846 H   0  0  0  0  0  0
    1.4384    0.9836   -1.3001 H   0  0  0  0  0  0
    4.7791    2.0426   -0.3214 H   0  0  0  0  0  0
    5.2316    0.7624    0.7943 H   0  0  0  0  0  0
    4.0664    2.0061    1.2913 H   0  0  0  0  0  0
    4.1307   -0.2784    2.4821 H   0  0  0  0  0  0
    2.9445   -1.7256    4.0748 H   0  0  0  0  0  0
   -4.5254   -1.7718   -0.1303 H   0  0  0  0  0  0
   -4.2558   -0.1305    2.1732 H   0  0  0  0  0  0
   -5.5449    0.0719    0.9424 H   0  0  0  0  0  0
   -2.8555    3.1836   -1.2664 H   0  0  0  0  0  0
   -1.7960    0.0035   -4.0018 H   0  0  0  0  0  0
   -2.6891   -1.6860   -2.4173 H   0  0  0  0  0  0
    0.7981   -0.8087   -0.2060 H   0  0  0  0  0  0
  1  2  1  0  0  0
  1 27  1  0  0  0
  1 28  1  0  0  0
  1 29  1  0  0  0
  2  3  1  0  0  0
  2  4  1  0  0  0
  2  5  1  0  0  0
  3 30  1  0  0  0
  3 31  1  0  0  0
  3 32  1  0  0  0
  4 33  1  0  0  0
  4 34  1  0  0  0
  4 35  1  0  0  0
  5  6  2  0  0  0
  5 26  1  0  0  0
  6  7  1  0  0  0
  6 36  1  0  0  0
  7  8  2  0  0  0
  7 37  1  0  0  0
  8  9  1  0  0  0
  9 10  1  0  0  0
  9 26  2  0  0  0
 10 11  2  0  0  0
 10 25  1  0  0  0
 11 12  1  0  0  0
 12 13  1  0  0  0
 13 14  1  0  0  0
 13 25  2  0  0  0
 14 15  1  0  0  0
 14 24  1  0  0  0
 14 38  1  0  0  0
 15 16  1  0  0  0
 15 39  1  0  0  0
 15 40  1  0  0  0
 16 17  2  0  0  0
 16 18  1  0  0  0
 18 19  2  0  0  0
 18 24  1  0  0  0
 19 20  1  0  0  0
 19 41  1  0  0  0
 20 21  1  0  0  0
 20 22  2  0  0  0
 22 23  1  0  0  0
 22 42  1  0  0  0
 23 24  2  0  0  0
 23 43  1  0  0  0
 26 44  1  0  0  0
M  END
> <energy>
110.308

> <i_ionizer_Ion_state_n>
0

> <i_ionizer_Tot_Q>
0

> <s_ionizer_Ion_centers>


> <s_ionizer_Ion_types>


> <s_ionizer_Ion_ctrs_in>


> <r_ionizer_Ionization_penalty>
0.00741239

> <r_ionizer_Ionization_penalty_charging>
0

> <r_ionizer_Ionization_penalty_neutral>
0.00741239

$$$$
ZINC001211864020
                    3D
 Schrodinger Suite 2019-4.
 44 47  0  0  1  0            999 V2000
    4.2806    2.3539   -1.3697 C   0  0  0  0  0  0
    3.1330    1.5219   -0.7591 C   0  0  0  0  0  0
    2.2790    2.4849    0.0953 C   0  0  0  0  0  0
    3.7731    0.4588    0.1605 C   0  0  0  0  0  0
    2.2615    0.8273   -1.8183 C   0  0  0  0  0  0
    2.5712    0.7960   -3.1812 C   0  0  0  0  0  0
    1.7308    0.1195   -4.0601 C   0  0  0  0  0  0
    0.6099   -0.5359   -3.6931 N   0  0  0  0  0  0
    0.2881   -0.4971   -2.3795 C   0  0  0  0  0  0
   -0.9578   -1.1388   -1.9412 C   0  0  0  0  0  0
   -1.6710   -2.0468   -2.6310 N   0  0  0  0  0  0
   -2.7565   -2.3315   -1.7970 O   0  0  0  0  0  0
   -2.5911   -1.5719   -0.6803 C   0  0  0  0  0  0
   -3.6319   -1.6297    0.3871 C   0  0  2  0  0  0
   -4.4333   -0.3059    0.4019 C   0  0  0  0  0  0
   -3.7991    0.4949    1.5132 C   0  0  0  0  0  0
   -3.9678    1.6786    1.7428 O   0  0  0  0  0  0
   -2.9972   -0.3885    2.3478 C   0  0  0  0  0  0
   -2.3407   -0.0984    3.5298 C   0  0  0  0  0  0
   -1.6484   -1.1400    4.1362 C   0  0  0  0  0  0
   -0.7685   -0.8397    5.5861 Cl  0  0  0  0  0  0
   -1.6492   -2.4319    3.5830 C   0  0  0  0  0  0
   -2.3207   -2.6944    2.3807 C   0  0  0  0  0  0
   -2.9881   -1.6499    1.7555 C   0  0  0  0  0  0
   -1.5052   -0.8380   -0.7061 N   0  0  0  0  0  0
    1.0840    0.1607   -1.4357 C   0  0  0  0  0  0
    4.8303    2.9033   -0.5980 H   0  0  0  0  0  0
    3.9037    3.0898   -2.0874 H   0  0  0  0  0  0
    5.0082    1.7172   -1.8862 H   0  0  0  0  0  0
    1.8150    3.2578   -0.5265 H   0  0  0  0  0  0
    1.4748    1.9722    0.6328 H   0  0  0  0  0  0
    2.8824    2.9908    0.8574 H   0  0  0  0  0  0
    4.4062   -0.2304   -0.4127 H   0  0  0  0  0  0
    3.0239   -0.1437    0.6852 H   0  0  0  0  0  0
    4.4091    0.9225    0.9249 H   0  0  0  0  0  0
    3.4494    1.2817   -3.5928 H   0  0  0  0  0  0
    1.9511    0.0865   -5.1244 H   0  0  0  0  0  0
   -4.2994   -2.4863    0.2509 H   0  0  0  0  0  0
   -4.3800    0.2357   -0.5470 H   0  0  0  0  0  0
   -5.4789   -0.4831    0.6780 H   0  0  0  0  0  0
   -2.3728    0.8997    3.9538 H   0  0  0  0  0  0
   -1.1065   -3.2354    4.0809 H   0  0  0  0  0  0
   -2.2773   -3.6885    1.9383 H   0  0  0  0  0  0
    0.7763    0.1522   -0.3949 H   0  0  0  0  0  0
  1  2  1  0  0  0
  1 27  1  0  0  0
  1 28  1  0  0  0
  1 29  1  0  0  0
  2  3  1  0  0  0
  2  4  1  0  0  0
  2  5  1  0  0  0
  3 30  1  0  0  0
  3 31  1  0  0  0
  3 32  1  0  0  0
  4 33  1  0  0  0
  4 34  1  0  0  0
  4 35  1  0  0  0
  5  6  2  0  0  0
  5 26  1  0  0  0
  6  7  1  0  0  0
  6 36  1  0  0  0
  7  8  2  0  0  0
  7 37  1  0  0  0
  8  9  1  0  0  0
  9 10  1  0  0  0
  9 26  2  0  0  0
 10 11  2  0  0  0
 10 25  1  0  0  0
 11 12  1  0  0  0
 12 13  1  0  0  0
 13 14  1  0  0  0
 13 25  2  0  0  0
 14 15  1  0  0  0
 14 24  1  0  0  0
 14 38  1  0  0  0
 15 16  1  0  0  0
 15 39  1  0  0  0
 15 40  1  0  0  0
 16 17  2  0  0  0
 16 18  1  0  0  0
 18 19  2  0  0  0
 18 24  1  0  0  0
 19 20  1  0  0  0
 19 41  1  0  0  0
 20 21  1  0  0  0
 20 22  2  0  0  0
 22 23  1  0  0  0
 22 42  1  0  0  0
 23 24  2  0  0  0
 23 43  1  0  0  0
 26 44  1  0  0  0
M  END
> <energy>
102.537

> <i_ionizer_Ion_state_n>
0

> <i_ionizer_Tot_Q>
0

> <s_ionizer_Ion_centers>


> <s_ionizer_Ion_types>


> <s_ionizer_Ion_ctrs_in>


> <r_ionizer_Ionization_penalty>
0.00741239

> <r_ionizer_Ionization_penalty_charging>
0

> <r_ionizer_Ionization_penalty_neutral>
0.00741239

$$$$
ZINC001211864028
                    3D
 Schrodinger Suite 2019-4.
 41 44  0  0  1  0            999 V2000
   -1.3858   -2.1297   -2.7147 C   0  0  0  0  0  0
   -1.8589   -1.1989   -1.6341 C   0  0  0  0  0  0
   -2.5213   -0.1119   -2.0867 N   0  0  0  0  0  0
   -2.9405    0.8125   -1.2145 C   0  0  0  0  0  0
   -3.5553    1.9454   -1.7309 C   0  0  0  0  0  0
   -4.0172    2.9749   -0.9111 C   0  0  0  0  0  0
   -3.8605    2.8729    0.4608 C   0  0  0  0  0  0
   -3.2443    1.7431    1.0007 C   0  0  0  0  0  0
   -2.7721    0.6849    0.1815 C   0  0  0  0  0  0
   -2.1202   -0.4899    0.6583 C   0  0  0  0  0  0
   -1.9147   -0.7300    2.1363 C   0  0  0  0  0  0
   -1.6112   -1.4316   -0.2733 C   0  0  0  0  0  0
   -0.7136   -2.5814    0.1566 C   0  0  0  0  0  0
    0.7198   -2.1851    0.1167 C   0  0  0  0  0  0
    1.3417   -1.2251    0.7634 N   0  0  0  0  0  0
    2.5736   -1.2000    0.1456 C   0  0  0  0  0  0
    3.5419   -0.1551    0.4320 C   0  0  0  0  0  0
    3.5055    0.5143    1.6659 C   0  0  0  0  0  0
    4.3942    1.5544    1.9215 C   0  0  0  0  0  0
    4.3520    2.1820    3.1046 F   0  0  0  0  0  0
    5.3231    1.9552    0.9672 C   0  0  0  0  0  0
    5.3676    1.2993   -0.2616 C   0  0  0  0  0  0
    4.4847    0.2504   -0.5205 C   0  0  0  0  0  0
    4.5466   -0.3303   -1.7278 F   0  0  0  0  0  0
    2.7485   -2.1857   -0.7491 N   0  0  0  0  0  0
    1.5163   -2.8322   -0.7794 O   0  0  0  0  0  0
   -1.7595   -1.8108   -3.6948 H   0  0  0  0  0  0
   -0.2940   -2.1394   -2.7610 H   0  0  0  0  0  0
   -1.7596   -3.1421   -2.5388 H   0  0  0  0  0  0
   -3.6714    2.0337   -2.8089 H   0  0  0  0  0  0
   -4.4883    3.8489   -1.3492 H   0  0  0  0  0  0
   -4.2087    3.6678    1.1151 H   0  0  0  0  0  0
   -3.1259    1.7162    2.0783 H   0  0  0  0  0  0
   -2.2221   -1.7463    2.4013 H   0  0  0  0  0  0
   -2.5146   -0.0838    2.7767 H   0  0  0  0  0  0
   -0.8648   -0.5822    2.4008 H   0  0  0  0  0  0
   -0.9557   -2.9258    1.1664 H   0  0  0  0  0  0
   -0.8909   -3.4603   -0.4745 H   0  0  0  0  0  0
    2.7804    0.2410    2.4283 H   0  0  0  0  0  0
    5.9995    2.7772    1.1798 H   0  0  0  0  0  0
    6.0756    1.6033   -1.0268 H   0  0  0  0  0  0
  1  2  1  0  0  0
  1 27  1  0  0  0
  1 28  1  0  0  0
  1 29  1  0  0  0
  2  3  2  0  0  0
  2 12  1  0  0  0
  3  4  1  0  0  0
  4  5  2  0  0  0
  4  9  1  0  0  0
  5  6  1  0  0  0
  5 30  1  0  0  0
  6  7  2  0  0  0
  6 31  1  0  0  0
  7  8  1  0  0  0
  7 32  1  0  0  0
  8  9  2  0  0  0
  8 33  1  0  0  0
  9 10  1  0  0  0
 10 11  1  0  0  0
 10 12  2  0  0  0
 11 34  1  0  0  0
 11 35  1  0  0  0
 11 36  1  0  0  0
 12 13  1  0  0  0
 13 14  1  0  0  0
 13 37  1  0  0  0
 13 38  1  0  0  0
 14 15  2  0  0  0
 14 26  1  0  0  0
 15 16  1  0  0  0
 16 17  1  0  0  0
 16 25  2  0  0  0
 17 18  2  0  0  0
 17 23  1  0  0  0
 18 19  1  0  0  0
 18 39  1  0  0  0
 19 20  1  0  0  0
 19 21  2  0  0  0
 21 22  1  0  0  0
 21 40  1  0  0  0
 22 23  2  0  0  0
 22 41  1  0  0  0
 23 24  1  0  0  0
 25 26  1  0  0  0
M  END
> <energy>
75.9274

> <i_ionizer_Ion_state_n>
0

> <i_ionizer_Tot_Q>
0

> <s_ionizer_Ion_centers>


> <s_ionizer_Ion_types>


> <s_ionizer_Ion_ctrs_in>


> <r_ionizer_Ionization_penalty>
0

> <r_ionizer_Ionization_penalty_charging>
0

> <r_ionizer_Ionization_penalty_neutral>
0

$$$$
ZINC001211864054
                    3D
 Schrodinger Suite 2019-4.
 45 48  0  0  1  0            999 V2000
    7.0604    1.4999   -0.8170 C   0  0  0  0  0  0
    6.1730    0.7064   -0.0383 O   0  0  0  0  0  0
    4.8456    0.7898   -0.3647 C   0  0  0  0  0  0
    4.2856    1.7006   -1.2576 C   0  0  0  0  0  0
    2.9185    1.6604   -1.5038 C   0  0  0  0  0  0
    2.3871    2.5303   -2.3730 F   0  0  0  0  0  0
    2.0992    0.7321   -0.8752 C   0  0  0  0  0  0
    2.6472   -0.1800    0.0355 C   0  0  0  0  0  0
    1.7818   -1.1532    0.6886 C   0  0  0  0  0  0
    2.1888   -2.1567    1.4845 N   0  0  0  0  0  0
    1.0003   -2.7896    1.8616 O   0  0  0  0  0  0
   -0.0049   -2.1047    1.2518 C   0  0  0  0  0  0
   -1.4092   -2.5517    1.4829 C   0  0  0  0  0  0
   -2.3657   -1.6158    0.7580 C   0  0  0  0  0  0
   -2.7653   -1.9077   -0.5571 C   0  0  0  0  0  0
   -2.4658   -3.2273   -1.2120 C   0  0  0  0  0  0
   -3.3861   -1.0075   -1.3513 N   0  0  0  0  0  0
   -3.5986    0.2280   -0.8929 C   0  0  0  0  0  0
   -4.1460    1.1531   -1.7714 C   0  0  0  0  0  0
   -4.4057    2.4705   -1.3851 C   0  0  0  0  0  0
   -4.0977    2.8793   -0.0979 C   0  0  0  0  0  0
   -3.5282    1.9692    0.7900 C   0  0  0  0  0  0
   -3.2748    0.6249    0.4220 C   0  0  0  0  0  0
   -2.6837   -0.3408    1.2812 C   0  0  0  0  0  0
   -2.3011    0.0532    2.6921 C   0  0  0  0  0  0
    0.4236   -1.1051    0.5163 N   0  0  0  0  0  0
    4.0234   -0.1362    0.2884 C   0  0  0  0  0  0
    6.9521    1.3011   -1.8899 H   0  0  0  0  0  0
    6.9186    2.5639   -0.6015 H   0  0  0  0  0  0
    8.0824    1.2319   -0.5355 H   0  0  0  0  0  0
    4.8720    2.4516   -1.7764 H   0  0  0  0  0  0
    1.0349    0.7288   -1.1044 H   0  0  0  0  0  0
   -1.5231   -3.5880    1.1441 H   0  0  0  0  0  0
   -1.6424   -2.5898    2.5525 H   0  0  0  0  0  0
   -1.3823   -3.3756   -1.2718 H   0  0  0  0  0  0
   -2.8643   -3.2698   -2.2332 H   0  0  0  0  0  0
   -2.9222   -4.0446   -0.6423 H   0  0  0  0  0  0
   -4.3654    0.8420   -2.7886 H   0  0  0  0  0  0
   -4.8481    3.1623   -2.0940 H   0  0  0  0  0  0
   -4.2905    3.9025    0.2156 H   0  0  0  0  0  0
   -3.2641    2.3300    1.7819 H   0  0  0  0  0  0
   -2.1605   -0.8026    3.3545 H   0  0  0  0  0  0
   -1.3765    0.6383    2.6887 H   0  0  0  0  0  0
   -3.0997    0.6368    3.1630 H   0  0  0  0  0  0
    4.4775   -0.8399    0.9819 H   0  0  0  0  0  0
  1  2  1  0  0  0
  1 28  1  0  0  0
  1 29  1  0  0  0
  1 30  1  0  0  0
  2  3  1  0  0  0
  3  4  2  0  0  0
  3 27  1  0  0  0
  4  5  1  0  0  0
  4 31  1  0  0  0
  5  6  1  0  0  0
  5  7  2  0  0  0
  7  8  1  0  0  0
  7 32  1  0  0  0
  8  9  1  0  0  0
  8 27  2  0  0  0
  9 10  2  0  0  0
  9 26  1  0  0  0
 10 11  1  0  0  0
 11 12  1  0  0  0
 12 13  1  0  0  0
 12 26  2  0  0  0
 13 14  1  0  0  0
 13 33  1  0  0  0
 13 34  1  0  0  0
 14 15  1  0  0  0
 14 24  2  0  0  0
 15 16  1  0  0  0
 15 17  2  0  0  0
 16 35  1  0  0  0
 16 36  1  0  0  0
 16 37  1  0  0  0
 17 18  1  0  0  0
 18 19  1  0  0  0
 18 23  2  0  0  0
 19 20  2  0  0  0
 19 38  1  0  0  0
 20 21  1  0  0  0
 20 39  1  0  0  0
 21 22  2  0  0  0
 21 40  1  0  0  0
 22 23  1  0  0  0
 22 41  1  0  0  0
 23 24  1  0  0  0
 24 25  1  0  0  0
 25 42  1  0  0  0
 25 43  1  0  0  0
 25 44  1  0  0  0
 27 45  1  0  0  0
M  END
> <energy>
77.2612

> <i_ionizer_Ion_state_n>
0

> <i_ionizer_Tot_Q>
0

> <s_ionizer_Ion_centers>


> <s_ionizer_Ion_types>


> <s_ionizer_Ion_ctrs_in>


> <r_ionizer_Ionization_penalty>
0.00741239

> <r_ionizer_Ionization_penalty_charging>
0

> <r_ionizer_Ionization_penalty_neutral>
0.00741239

$$$$
ZINC001211864055
                    3D
 Schrodinger Suite 2019-4.
 45 48  0  0  1  0            999 V2000
    4.9187    0.9176   -1.5766 C   0  0  0  0  0  0
    5.3810   -0.1544   -0.7557 O   0  0  0  0  0  0
    4.5285   -0.3527    0.2934 C   0  0  0  0  0  0
    4.8848    0.1413    1.5454 C   0  0  0  0  0  0
    4.0605   -0.1078    2.6408 C   0  0  0  0  0  0
    2.8984   -0.8628    2.4805 C   0  0  0  0  0  0
    2.1280   -1.0577    3.5613 F   0  0  0  0  0  0
    2.5310   -1.3618    1.2278 C   0  0  0  0  0  0
    1.2744   -2.0619    1.0284 C   0  0  0  0  0  0
    0.6478   -2.7975    1.9594 N   0  0  0  0  0  0
   -0.5860   -3.0864    1.3812 O   0  0  0  0  0  0
   -0.5778   -2.5064    0.1491 C   0  0  0  0  0  0
   -1.8810   -2.4309   -0.5756 C   0  0  0  0  0  0
   -2.2845   -0.9772   -0.7794 C   0  0  0  0  0  0
   -2.0674   -0.3425   -2.0127 C   0  0  0  0  0  0
   -1.6066   -1.0782   -3.2408 C   0  0  0  0  0  0
   -2.2184    0.9877   -2.1997 N   0  0  0  0  0  0
   -2.5511    1.7597   -1.1649 C   0  0  0  0  0  0
   -2.6026    3.1312   -1.3822 C   0  0  0  0  0  0
   -2.9267    4.0233   -0.3619 C   0  0  0  0  0  0
   -3.2032    3.5366    0.9080 C   0  0  0  0  0  0
   -3.1485    2.1615    1.1446 C   0  0  0  0  0  0
   -2.8296    1.2409    0.1159 C   0  0  0  0  0  0
   -2.7442   -0.1731    0.2951 C   0  0  0  0  0  0
   -3.0774   -0.7745    1.6438 C   0  0  0  0  0  0
    0.5704   -1.9420   -0.1506 N   0  0  0  0  0  0
    3.3667   -1.1068    0.1301 C   0  0  0  0  0  0
    5.6233    1.0314   -2.4053 H   0  0  0  0  0  0
    3.9318    0.7054   -2.0000 H   0  0  0  0  0  0
    4.8964    1.8597   -1.0181 H   0  0  0  0  0  0
    5.7957    0.7209    1.6685 H   0  0  0  0  0  0
    4.3069    0.2893    3.6203 H   0  0  0  0  0  0
   -2.6655   -2.9724   -0.0334 H   0  0  0  0  0  0
   -1.7843   -2.9636   -1.5268 H   0  0  0  0  0  0
   -1.5872   -0.4055   -4.1070 H   0  0  0  0  0  0
   -2.2906   -1.8971   -3.4812 H   0  0  0  0  0  0
   -0.5919   -1.4597   -3.0911 H   0  0  0  0  0  0
   -2.3632    3.5144   -2.3722 H   0  0  0  0  0  0
   -2.9466    5.0908   -0.5631 H   0  0  0  0  0  0
   -3.4460    4.2203    1.7151 H   0  0  0  0  0  0
   -3.3327    1.8194    2.1605 H   0  0  0  0  0  0
   -3.9576   -0.2907    2.0802 H   0  0  0  0  0  0
   -2.2293   -0.6730    2.3299 H   0  0  0  0  0  0
   -3.3505   -1.8295    1.5749 H   0  0  0  0  0  0
    3.1059   -1.4853   -0.8559 H   0  0  0  0  0  0
  1  2  1  0  0  0
  1 28  1  0  0  0
  1 29  1  0  0  0
  1 30  1  0  0  0
  2  3  1  0  0  0
  3  4  2  0  0  0
  3 27  1  0  0  0
  4  5  1  0  0  0
  4 31  1  0  0  0
  5  6  2  0  0  0
  5 32  1  0  0  0
  6  7  1  0  0  0
  6  8  1  0  0  0
  8  9  1  0  0  0
  8 27  2  0  0  0
  9 10  2  0  0  0
  9 26  1  0  0  0
 10 11  1  0  0  0
 11 12  1  0  0  0
 12 13  1  0  0  0
 12 26  2  0  0  0
 13 14  1  0  0  0
 13 33  1  0  0  0
 13 34  1  0  0  0
 14 15  1  0  0  0
 14 24  2  0  0  0
 15 16  1  0  0  0
 15 17  2  0  0  0
 16 35  1  0  0  0
 16 36  1  0  0  0
 16 37  1  0  0  0
 17 18  1  0  0  0
 18 19  1  0  0  0
 18 23  2  0  0  0
 19 20  2  0  0  0
 19 38  1  0  0  0
 20 21  1  0  0  0
 20 39  1  0  0  0
 21 22  2  0  0  0
 21 40  1  0  0  0
 22 23  1  0  0  0
 22 41  1  0  0  0
 23 24  1  0  0  0
 24 25  1  0  0  0
 25 42  1  0  0  0
 25 43  1  0  0  0
 25 44  1  0  0  0
 27 45  1  0  0  0
M  END
> <energy>
88.6343

> <i_ionizer_Ion_state_n>
0

> <i_ionizer_Tot_Q>
0

> <s_ionizer_Ion_centers>


> <s_ionizer_Ion_types>


> <s_ionizer_Ion_ctrs_in>


> <r_ionizer_Ionization_penalty>
0.00741239

> <r_ionizer_Ionization_penalty_charging>
0

> <r_ionizer_Ionization_penalty_neutral>
0.00741239

$$$$
ZINC001211864056
                    3D
 Schrodinger Suite 2019-4.
 38 42  0  0  1  0            999 V2000
    2.9931    0.3600   -3.0770 O   0  0  0  0  0  0
    2.9797   -0.0339   -1.9242 C   0  0  0  0  0  0
    2.6158   -1.4203   -1.4549 C   0  0  0  0  0  0
    2.5890   -1.3186    0.0877 C   0  0  2  0  0  0
    1.2021   -1.4070    0.6219 C   0  0  0  0  0  0
    0.0587   -1.0578    0.0794 N   0  0  0  0  0  0
   -0.8618   -1.4072    1.0447 C   0  0  0  0  0  0
   -2.3025   -1.2846    0.8569 C   0  0  0  0  0  0
   -3.1238   -2.2431    1.4566 C   0  0  0  0  0  0
   -4.4704   -2.2890    1.3458 N   0  0  0  0  0  0
   -5.0374   -1.3244    0.5926 C   0  0  0  0  0  0
   -4.3365   -0.3055   -0.0542 C   0  0  0  0  0  0
   -5.0148    0.6640   -0.8158 C   0  0  0  0  0  0
   -4.3170    1.6868   -1.4529 C   0  0  0  0  0  0
   -2.9369    1.7549   -1.3299 C   0  0  0  0  0  0
   -2.2537    0.7974   -0.5738 C   0  0  0  0  0  0
   -2.9260   -0.2687    0.0783 C   0  0  0  0  0  0
   -0.3027   -1.9449    2.1436 N   0  0  0  0  0  0
    1.0605   -1.9422    1.8666 O   0  0  0  0  0  0
    3.2238    0.0186    0.3706 C   0  0  0  0  0  0
    3.6030    0.5482    1.5969 C   0  0  0  0  0  0
    4.1382    1.8427    1.6268 C   0  0  0  0  0  0
    4.2839    2.5881    0.4434 C   0  0  0  0  0  0
    4.9341    4.1802    0.5214 Cl  0  0  0  0  0  0
    3.9121    2.0552   -0.7874 C   0  0  0  0  0  0
    3.3951    0.7726   -0.7864 C   0  0  0  0  0  0
    3.4098   -2.1040   -1.7761 H   0  0  0  0  0  0
    1.6650   -1.7358   -1.8962 H   0  0  0  0  0  0
    3.2012   -2.1228    0.5132 H   0  0  0  0  0  0
   -2.7073   -3.0484    2.0584 H   0  0  0  0  0  0
   -6.1208   -1.3965    0.5223 H   0  0  0  0  0  0
   -6.0974    0.6284   -0.9179 H   0  0  0  0  0  0
   -4.8500    2.4304   -2.0411 H   0  0  0  0  0  0
   -2.3860    2.5536   -1.8207 H   0  0  0  0  0  0
   -1.1742    0.9032   -0.5034 H   0  0  0  0  0  0
    3.4857   -0.0148    2.5196 H   0  0  0  0  0  0
    4.4421    2.2743    2.5779 H   0  0  0  0  0  0
    4.0264    2.6107   -1.7126 H   0  0  0  0  0  0
  1  2  2  0  0  0
  2  3  1  0  0  0
  2 26  1  0  0  0
  3  4  1  0  0  0
  3 27  1  0  0  0
  3 28  1  0  0  0
  4  5  1  0  0  0
  4 20  1  0  0  0
  4 29  1  0  0  0
  5  6  2  0  0  0
  5 19  1  0  0  0
  6  7  1  0  0  0
  7  8  1  0  0  0
  7 18  2  0  0  0
  8  9  2  0  0  0
  8 17  1  0  0  0
  9 10  1  0  0  0
  9 30  1  0  0  0
 10 11  2  0  0  0
 11 12  1  0  0  0
 11 31  1  0  0  0
 12 13  2  0  0  0
 12 17  1  0  0  0
 13 14  1  0  0  0
 13 32  1  0  0  0
 14 15  2  0  0  0
 14 33  1  0  0  0
 15 16  1  0  0  0
 15 34  1  0  0  0
 16 17  2  0  0  0
 16 35  1  0  0  0
 18 19  1  0  0  0
 20 21  2  0  0  0
 20 26  1  0  0  0
 21 22  1  0  0  0
 21 36  1  0  0  0
 22 23  2  0  0  0
 22 37  1  0  0  0
 23 24  1  0  0  0
 23 25  1  0  0  0
 25 26  2  0  0  0
 25 38  1  0  0  0
M  END
> <energy>
79.7345

> <i_ionizer_Ion_state_n>
0

> <i_ionizer_Tot_Q>
0

> <s_ionizer_Ion_centers>


> <s_ionizer_Ion_types>


> <s_ionizer_Ion_ctrs_in>


> <r_ionizer_Ionization_penalty>
0

> <r_ionizer_Ionization_penalty_charging>
0

> <r_ionizer_Ionization_penalty_neutral>
0

$$$$
ZINC001211864057
                    3D
 Schrodinger Suite 2019-4.
 38 42  0  0  1  0            999 V2000
    0.5857   -3.9445   -1.7928 O   0  0  0  0  0  0
    0.7186   -3.4860   -0.6722 C   0  0  0  0  0  0
    1.8981   -2.6939   -0.1632 C   0  0  0  0  0  0
    1.4327   -2.1561    1.2089 C   0  0  1  0  0  0
    1.0763   -0.7128    1.1531 C   0  0  0  0  0  0
    0.5015   -0.0178    0.1979 N   0  0  0  0  0  0
    0.2956    1.2024    0.8040 C   0  0  0  0  0  0
   -0.4099    2.2824    0.1502 C   0  0  0  0  0  0
   -1.6639    2.6469    0.6383 C   0  0  0  0  0  0
   -2.4477    3.6034    0.0938 N   0  0  0  0  0  0
   -1.9510    4.2298   -0.9946 C   0  0  0  0  0  0
   -0.7021    3.9686   -1.5651 C   0  0  0  0  0  0
   -0.2461    4.6739   -2.6938 C   0  0  0  0  0  0
    1.0098    4.4139   -3.2359 C   0  0  0  0  0  0
    1.8233    3.4438   -2.6594 C   0  0  0  0  0  0
    1.3770    2.7276   -1.5459 C   0  0  0  0  0  0
    0.1046    2.9678   -0.9746 C   0  0  0  0  0  0
    0.7430    1.2710    2.0664 N   0  0  0  0  0  0
    1.2749    0.0042    2.2961 O   0  0  0  0  0  0
    0.2191   -2.9947    1.5246 C   0  0  0  0  0  0
   -0.4925   -3.0570    2.7161 C   0  0  0  0  0  0
   -1.6485   -3.8445    2.7621 C   0  0  0  0  0  0
   -2.0786   -4.5503    1.6244 C   0  0  0  0  0  0
   -3.5035   -5.5117    1.7191 Cl  0  0  0  0  0  0
   -1.3681   -4.4856    0.4269 C   0  0  0  0  0  0
   -0.2265   -3.7051    0.4150 C   0  0  0  0  0  0
    2.1804   -1.9091   -0.8725 H   0  0  0  0  0  0
    2.7345   -3.3915   -0.0334 H   0  0  0  0  0  0
    2.2198   -2.3212    1.9529 H   0  0  0  0  0  0
   -2.0951    2.1523    1.5063 H   0  0  0  0  0  0
   -2.6110    4.9861   -1.4134 H   0  0  0  0  0  0
   -0.8703    5.4402   -3.1524 H   0  0  0  0  0  0
    1.3552    4.9713   -4.1039 H   0  0  0  0  0  0
    2.8070    3.2403   -3.0770 H   0  0  0  0  0  0
    2.0401    1.9739   -1.1256 H   0  0  0  0  0  0
   -0.1754   -2.5001    3.5949 H   0  0  0  0  0  0
   -2.2211   -3.8986    3.6868 H   0  0  0  0  0  0
   -1.6859   -5.0192   -0.4622 H   0  0  0  0  0  0
  1  2  2  0  0  0
  2  3  1  0  0  0
  2 26  1  0  0  0
  3  4  1  0  0  0
  3 27  1  0  0  0
  3 28  1  0  0  0
  4  5  1  0  0  0
  4 20  1  0  0  0
  4 29  1  0  0  0
  5  6  2  0  0  0
  5 19  1  0  0  0
  6  7  1  0  0  0
  7  8  1  0  0  0
  7 18  2  0  0  0
  8  9  2  0  0  0
  8 17  1  0  0  0
  9 10  1  0  0  0
  9 30  1  0  0  0
 10 11  2  0  0  0
 11 12  1  0  0  0
 11 31  1  0  0  0
 12 13  2  0  0  0
 12 17  1  0  0  0
 13 14  1  0  0  0
 13 32  1  0  0  0
 14 15  2  0  0  0
 14 33  1  0  0  0
 15 16  1  0  0  0
 15 34  1  0  0  0
 16 17  2  0  0  0
 16 35  1  0  0  0
 18 19  1  0  0  0
 20 21  2  0  0  0
 20 26  1  0  0  0
 21 22  1  0  0  0
 21 36  1  0  0  0
 22 23  2  0  0  0
 22 37  1  0  0  0
 23 24  1  0  0  0
 23 25  1  0  0  0
 25 26  2  0  0  0
 25 38  1  0  0  0
M  END
> <energy>
81.9835

> <i_ionizer_Ion_state_n>
0

> <i_ionizer_Tot_Q>
0

> <s_ionizer_Ion_centers>


> <s_ionizer_Ion_types>


> <s_ionizer_Ion_ctrs_in>


> <r_ionizer_Ionization_penalty>
0

> <r_ionizer_Ionization_penalty_charging>
0

> <r_ionizer_Ionization_penalty_neutral>
0

$$$$
ZINC001211864108
                    3D
 Schrodinger Suite 2019-4.
 41 44  0  0  1  0            999 V2000
   -2.3222    1.7821   -2.2219 C   0  0  0  0  0  0
   -2.3834    0.7415   -1.1395 C   0  0  0  0  0  0
   -2.8525   -0.4583   -1.5475 N   0  0  0  0  0  0
   -2.8673   -1.4826   -0.6868 C   0  0  0  0  0  0
   -3.2903   -2.7130   -1.1706 C   0  0  0  0  0  0
   -3.3329   -3.8496   -0.3637 C   0  0  0  0  0  0
   -2.9333   -3.7594    0.9593 C   0  0  0  0  0  0
   -2.4996   -2.5322    1.4647 C   0  0  0  0  0  0
   -2.4618   -1.3646    0.6589 C   0  0  0  0  0  0
   -2.0259   -0.0803    1.1026 C   0  0  0  0  0  0
   -1.5776    0.1290    2.5296 C   0  0  0  0  0  0
   -1.9427    0.9859    0.1699 C   0  0  0  0  0  0
   -1.2720    2.3060    0.5148 C   0  0  0  0  0  0
    0.1795    2.2731    0.1896 C   0  0  0  0  0  0
    1.1089    1.4236    0.5675 N   0  0  0  0  0  0
    2.1892    1.7999   -0.2047 C   0  0  0  0  0  0
    3.4189    1.0221   -0.2209 C   0  0  0  0  0  0
    3.6628    0.0804    0.7979 C   0  0  0  0  0  0
    4.8093   -0.7225    0.7813 C   0  0  0  0  0  0
    5.7258   -0.5933   -0.2596 C   0  0  0  0  0  0
    5.4942    0.3418   -1.2632 C   0  0  0  0  0  0
    6.3814    0.4532   -2.2626 F   0  0  0  0  0  0
    4.3559    1.1428   -1.2509 C   0  0  0  0  0  0
    4.1733    2.0079   -2.2607 F   0  0  0  0  0  0
    1.9650    2.8991   -0.9408 N   0  0  0  0  0  0
    0.6330    3.2070   -0.6910 O   0  0  0  0  0  0
   -2.9024    2.6672   -1.9442 H   0  0  0  0  0  0
   -1.2841    2.0665   -2.4170 H   0  0  0  0  0  0
   -2.7392    1.3971   -3.1605 H   0  0  0  0  0  0
   -3.5852   -2.7894   -2.2155 H   0  0  0  0  0  0
   -3.6699   -4.7955   -0.7769 H   0  0  0  0  0  0
   -2.9497   -4.6379    1.5991 H   0  0  0  0  0  0
   -2.1798   -2.5104    2.5013 H   0  0  0  0  0  0
   -1.8968    1.1049    2.9046 H   0  0  0  0  0  0
   -0.4892    0.0445    2.5981 H   0  0  0  0  0  0
   -2.0319   -0.5828    3.2224 H   0  0  0  0  0  0
   -1.3939    2.5677    1.5690 H   0  0  0  0  0  0
   -1.7610    3.1296   -0.0188 H   0  0  0  0  0  0
    2.9495   -0.0401    1.6117 H   0  0  0  0  0  0
    4.9795   -1.4491    1.5737 H   0  0  0  0  0  0
    6.6186   -1.2118   -0.2989 H   0  0  0  0  0  0
  1  2  1  0  0  0
  1 27  1  0  0  0
  1 28  1  0  0  0
  1 29  1  0  0  0
  2  3  2  0  0  0
  2 12  1  0  0  0
  3  4  1  0  0  0
  4  5  2  0  0  0
  4  9  1  0  0  0
  5  6  1  0  0  0
  5 30  1  0  0  0
  6  7  2  0  0  0
  6 31  1  0  0  0
  7  8  1  0  0  0
  7 32  1  0  0  0
  8  9  2  0  0  0
  8 33  1  0  0  0
  9 10  1  0  0  0
 10 11  1  0  0  0
 10 12  2  0  0  0
 11 34  1  0  0  0
 11 35  1  0  0  0
 11 36  1  0  0  0
 12 13  1  0  0  0
 13 14  1  0  0  0
 13 37  1  0  0  0
 13 38  1  0  0  0
 14 15  2  0  0  0
 14 26  1  0  0  0
 15 16  1  0  0  0
 16 17  1  0  0  0
 16 25  2  0  0  0
 17 18  2  0  0  0
 17 23  1  0  0  0
 18 19  1  0  0  0
 18 39  1  0  0  0
 19 20  2  0  0  0
 19 40  1  0  0  0
 20 21  1  0  0  0
 20 41  1  0  0  0
 21 22  1  0  0  0
 21 23  2  0  0  0
 23 24  1  0  0  0
 25 26  1  0  0  0
M  END
> <energy>
87.944

> <i_ionizer_Ion_state_n>
0

> <i_ionizer_Tot_Q>
0

> <s_ionizer_Ion_centers>


> <s_ionizer_Ion_types>


> <s_ionizer_Ion_ctrs_in>


> <r_ionizer_Ionization_penalty>
0

> <r_ionizer_Ionization_penalty_charging>
0

> <r_ionizer_Ionization_penalty_neutral>
0

$$$$
ZINC001211864111
                    3D
 Schrodinger Suite 2019-4.
 45 48  0  0  1  0            999 V2000
   -4.5544    0.3928    3.3728 C   0  0  0  0  0  0
   -3.6466    0.8445    2.3654 O   0  0  0  0  0  0
   -4.1551    0.6611    1.1045 C   0  0  0  0  0  0
   -5.3020    1.3617    0.7002 C   0  0  0  0  0  0
   -5.9424    2.1738    1.5526 F   0  0  0  0  0  0
   -5.7986    1.2549   -0.5938 C   0  0  0  0  0  0
   -5.1496    0.4410   -1.5110 C   0  0  0  0  0  0
   -3.9931   -0.2464   -1.1295 C   0  0  0  0  0  0
   -3.4704   -0.1451    0.1785 C   0  0  0  0  0  0
   -2.2283   -0.8557    0.4869 C   0  0  0  0  0  0
   -1.7728   -1.1540    1.7156 N   0  0  0  0  0  0
   -0.5133   -1.7144    1.4890 O   0  0  0  0  0  0
   -0.3414   -1.7361    0.1382 C   0  0  0  0  0  0
    0.9631   -2.2331   -0.3802 C   0  0  0  0  0  0
    2.1194   -1.2415   -0.3050 C   0  0  0  0  0  0
    3.3043   -1.5870    0.3604 C   0  0  0  0  0  0
    3.5051   -2.9040    1.0536 C   0  0  0  0  0  0
    4.4019   -0.7938    0.3719 N   0  0  0  0  0  0
    4.3723    0.3873   -0.2490 C   0  0  0  0  0  0
    5.5443    1.1350   -0.2525 C   0  0  0  0  0  0
    5.6288    2.3695   -0.8925 C   0  0  0  0  0  0
    4.4999    2.8987   -1.4932 C   0  0  0  0  0  0
    3.3098    2.1707   -1.4878 C   0  0  0  0  0  0
    3.2345    0.8761   -0.9123 C   0  0  0  0  0  0
    2.0968    0.0119   -0.9764 C   0  0  0  0  0  0
    0.8818    0.4352   -1.7693 C   0  0  0  0  0  0
   -1.3869   -1.2860   -0.5219 N   0  0  0  0  0  0
   -3.9803    0.2188    4.2875 H   0  0  0  0  0  0
   -5.0408   -0.5485    3.0933 H   0  0  0  0  0  0
   -5.3066    1.1551    3.5938 H   0  0  0  0  0  0
   -6.6853    1.8136   -0.8704 H   0  0  0  0  0  0
   -5.5287    0.3409   -2.5257 H   0  0  0  0  0  0
   -3.4852   -0.8608   -1.8732 H   0  0  0  0  0  0
    0.8509   -2.5342   -1.4298 H   0  0  0  0  0  0
    1.1930   -3.1613    0.1556 H   0  0  0  0  0  0
    2.7191   -3.0837    1.7922 H   0  0  0  0  0  0
    3.5244   -3.7086    0.3133 H   0  0  0  0  0  0
    4.4631   -2.9136    1.5860 H   0  0  0  0  0  0
    6.4183    0.7304    0.2535 H   0  0  0  0  0  0
    6.5741    2.9049   -0.9055 H   0  0  0  0  0  0
    4.5374    3.8733   -1.9715 H   0  0  0  0  0  0
    2.4360    2.6332   -1.9414 H   0  0  0  0  0  0
    0.3999   -0.4238   -2.2396 H   0  0  0  0  0  0
    0.1678    0.9579   -1.1247 H   0  0  0  0  0  0
    1.1357    1.0893   -2.6090 H   0  0  0  0  0  0
  1  2  1  0  0  0
  1 28  1  0  0  0
  1 29  1  0  0  0
  1 30  1  0  0  0
  2  3  1  0  0  0
  3  4  2  0  0  0
  3  9  1  0  0  0
  4  5  1  0  0  0
  4  6  1  0  0  0
  6  7  2  0  0  0
  6 31  1  0  0  0
  7  8  1  0  0  0
  7 32  1  0  0  0
  8  9  2  0  0  0
  8 33  1  0  0  0
  9 10  1  0  0  0
 10 11  2  0  0  0
 10 27  1  0  0  0
 11 12  1  0  0  0
 12 13  1  0  0  0
 13 14  1  0  0  0
 13 27  2  0  0  0
 14 15  1  0  0  0
 14 34  1  0  0  0
 14 35  1  0  0  0
 15 16  1  0  0  0
 15 25  2  0  0  0
 16 17  1  0  0  0
 16 18  2  0  0  0
 17 36  1  0  0  0
 17 37  1  0  0  0
 17 38  1  0  0  0
 18 19  1  0  0  0
 19 20  1  0  0  0
 19 24  2  0  0  0
 20 21  2  0  0  0
 20 39  1  0  0  0
 21 22  1  0  0  0
 21 40  1  0  0  0
 22 23  2  0  0  0
 22 41  1  0  0  0
 23 24  1  0  0  0
 23 42  1  0  0  0
 24 25  1  0  0  0
 25 26  1  0  0  0
 26 43  1  0  0  0
 26 44  1  0  0  0
 26 45  1  0  0  0
M  END
> <energy>
108.723

> <i_ionizer_Ion_state_n>
0

> <i_ionizer_Tot_Q>
0

> <s_ionizer_Ion_centers>


> <s_ionizer_Ion_types>


> <s_ionizer_Ion_ctrs_in>


> <r_ionizer_Ionization_penalty>
0.00741239

> <r_ionizer_Ionization_penalty_charging>
0

> <r_ionizer_Ionization_penalty_neutral>
0.00741239

$$$$
ZINC001211864119
                    3D
 Schrodinger Suite 2019-4.
 36 40  0  0  1  0            999 V2000
    3.1213   -1.2001   -3.1513 O   0  0  0  0  0  0
    2.9618   -0.9957   -1.9612 C   0  0  0  0  0  0
    2.4852   -1.9949   -0.9365 C   0  0  0  0  0  0
    2.4328   -1.2106    0.3941 C   0  0  2  0  0  0
    1.0498   -1.1240    0.9339 C   0  0  0  0  0  0
   -0.0531   -0.6960    0.3654 N   0  0  0  0  0  0
   -0.9707   -0.7627    1.3914 C   0  0  0  0  0  0
   -2.3401   -0.3155    1.2536 C   0  0  0  0  0  0
   -3.0476    0.2995    2.3025 C   0  0  0  0  0  0
   -4.3570    0.7581    2.1246 C   0  0  0  0  0  0
   -5.0118    0.6047    0.8957 C   0  0  0  0  0  0
   -4.3318   -0.0252   -0.1617 C   0  0  0  0  0  0
   -4.6546   -0.3649   -1.5029 C   0  0  0  0  0  0
   -3.5422   -0.9828   -2.0244 C   0  0  0  0  0  0
   -2.5545   -1.0530   -1.0975 O   0  0  0  0  0  0
   -3.0233   -0.4632    0.0431 C   0  0  0  0  0  0
   -0.4523   -1.2056    2.5502 N   0  0  0  0  0  0
    0.8819   -1.4610    2.2432 O   0  0  0  0  0  0
    2.9837    0.1485    0.0444 C   0  0  0  0  0  0
    3.1939    1.2304    0.8900 C   0  0  0  0  0  0
    3.6601    2.4295    0.3398 C   0  0  0  0  0  0
    3.9195    2.5302   -1.0373 C   0  0  0  0  0  0
    4.4869    4.0235   -1.6808 Cl  0  0  0  0  0  0
    3.7230    1.4436   -1.8845 C   0  0  0  0  0  0
    3.2554    0.2738   -1.3133 C   0  0  0  0  0  0
    3.2218   -2.8032   -0.8734 H   0  0  0  0  0  0
    1.5172   -2.4060   -1.2401 H   0  0  0  0  0  0
    3.0961   -1.6918    1.1227 H   0  0  0  0  0  0
   -2.5709    0.4395    3.2715 H   0  0  0  0  0  0
   -4.8742    1.2449    2.9483 H   0  0  0  0  0  0
   -6.0295    0.9622    0.7671 H   0  0  0  0  0  0
   -5.5857   -0.1814   -2.0198 H   0  0  0  0  0  0
   -3.3047   -1.4095   -2.9886 H   0  0  0  0  0  0
    2.9866    1.1641    1.9557 H   0  0  0  0  0  0
    3.8102    3.2908    0.9859 H   0  0  0  0  0  0
    3.9169    1.5038   -2.9498 H   0  0  0  0  0  0
  1  2  2  0  0  0
  2  3  1  0  0  0
  2 25  1  0  0  0
  3  4  1  0  0  0
  3 26  1  0  0  0
  3 27  1  0  0  0
  4  5  1  0  0  0
  4 19  1  0  0  0
  4 28  1  0  0  0
  5  6  2  0  0  0
  5 18  1  0  0  0
  6  7  1  0  0  0
  7  8  1  0  0  0
  7 17  2  0  0  0
  8  9  2  0  0  0
  8 16  1  0  0  0
  9 10  1  0  0  0
  9 29  1  0  0  0
 10 11  2  0  0  0
 10 30  1  0  0  0
 11 12  1  0  0  0
 11 31  1  0  0  0
 12 13  1  0  0  0
 12 16  2  0  0  0
 13 14  2  0  0  0
 13 32  1  0  0  0
 14 15  1  0  0  0
 14 33  1  0  0  0
 15 16  1  0  0  0
 17 18  1  0  0  0
 19 20  2  0  0  0
 19 25  1  0  0  0
 20 21  1  0  0  0
 20 34  1  0  0  0
 21 22  2  0  0  0
 21 35  1  0  0  0
 22 23  1  0  0  0
 22 24  1  0  0  0
 24 25  2  0  0  0
 24 36  1  0  0  0
M  END
> <energy>
60.1806

> <i_ionizer_Ion_state_n>
0

> <i_ionizer_Tot_Q>
0

> <s_ionizer_Ion_centers>


> <s_ionizer_Ion_types>


> <s_ionizer_Ion_ctrs_in>


> <r_ionizer_Ionization_penalty>
0

> <r_ionizer_Ionization_penalty_charging>
0

> <r_ionizer_Ionization_penalty_neutral>
0

$$$$
ZINC001211864120
                    3D
 Schrodinger Suite 2019-4.
 36 40  0  0  1  0            999 V2000
    2.8785    0.2398    3.6562 O   0  0  0  0  0  0
    2.8601   -0.1267    2.4953 C   0  0  0  0  0  0
    2.3597   -1.4536    1.9831 C   0  0  0  0  0  0
    2.3726   -1.3102    0.4444 C   0  0  1  0  0  0
    0.9875   -1.2129   -0.0876 C   0  0  0  0  0  0
    0.0458   -0.3367    0.1750 N   0  0  0  0  0  0
   -1.0174   -0.8021   -0.5752 C   0  0  0  0  0  0
   -2.2920   -0.1153   -0.5765 C   0  0  0  0  0  0
   -2.3926    1.2528   -0.2630 C   0  0  0  0  0  0
   -3.6242    1.9117   -0.2600 C   0  0  0  0  0  0
   -4.8057    1.2233   -0.5601 C   0  0  0  0  0  0
   -4.7368   -0.1496   -0.8603 C   0  0  0  0  0  0
   -5.6870   -1.1553   -1.1842 C   0  0  0  0  0  0
   -4.9772   -2.3200   -1.3531 C   0  0  0  0  0  0
   -3.6519   -2.1030   -1.1598 O   0  0  0  0  0  0
   -3.4910   -0.7780   -0.8624 C   0  0  0  0  0  0
   -0.7260   -1.8978   -1.2952 N   0  0  0  0  0  0
    0.5976   -2.1750   -0.9685 O   0  0  0  0  0  0
    3.1676   -0.0515    0.2085 C   0  0  0  0  0  0
    3.6241    0.4636   -0.9967 C   0  0  0  0  0  0
    4.3160    1.6818   -0.9813 C   0  0  0  0  0  0
    4.5383    2.3670    0.2265 C   0  0  0  0  0  0
    5.4050    3.8556    0.2091 Cl  0  0  0  0  0  0
    4.0772    1.8536    1.4356 C   0  0  0  0  0  0
    3.4027    0.6474    1.3889 C   0  0  0  0  0  0
    1.3696   -1.6755    2.3929 H   0  0  0  0  0  0
    3.0691   -2.2257    2.3022 H   0  0  0  0  0  0
    2.8922   -2.1690    0.0026 H   0  0  0  0  0  0
   -1.4924    1.8165   -0.0197 H   0  0  0  0  0  0
   -3.6664    2.9718   -0.0178 H   0  0  0  0  0  0
   -5.7598    1.7425   -0.5509 H   0  0  0  0  0  0
   -6.7587   -1.0457   -1.2752 H   0  0  0  0  0  0
   -5.2535   -3.3369   -1.5973 H   0  0  0  0  0  0
    3.4469   -0.0524   -1.9368 H   0  0  0  0  0  0
    4.6805    2.1011   -1.9170 H   0  0  0  0  0  0
    4.2415    2.3642    2.3786 H   0  0  0  0  0  0
  1  2  2  0  0  0
  2  3  1  0  0  0
  2 25  1  0  0  0
  3  4  1  0  0  0
  3 26  1  0  0  0
  3 27  1  0  0  0
  4  5  1  0  0  0
  4 19  1  0  0  0
  4 28  1  0  0  0
  5  6  2  0  0  0
  5 18  1  0  0  0
  6  7  1  0  0  0
  7  8  1  0  0  0
  7 17  2  0  0  0
  8  9  2  0  0  0
  8 16  1  0  0  0
  9 10  1  0  0  0
  9 29  1  0  0  0
 10 11  2  0  0  0
 10 30  1  0  0  0
 11 12  1  0  0  0
 11 31  1  0  0  0
 12 13  1  0  0  0
 12 16  2  0  0  0
 13 14  2  0  0  0
 13 32  1  0  0  0
 14 15  1  0  0  0
 14 33  1  0  0  0
 15 16  1  0  0  0
 17 18  1  0  0  0
 19 20  2  0  0  0
 19 25  1  0  0  0
 20 21  1  0  0  0
 20 34  1  0  0  0
 21 22  2  0  0  0
 21 35  1  0  0  0
 22 23  1  0  0  0
 22 24  1  0  0  0
 24 25  2  0  0  0
 24 36  1  0  0  0
M  END
> <energy>
60.2421

> <i_ionizer_Ion_state_n>
0

> <i_ionizer_Tot_Q>
0

> <s_ionizer_Ion_centers>


> <s_ionizer_Ion_types>


> <s_ionizer_Ion_ctrs_in>


> <r_ionizer_Ionization_penalty>
0

> <r_ionizer_Ionization_penalty_charging>
0

> <r_ionizer_Ionization_penalty_neutral>
0

$$$$
ZINC001211864141
                    3D
 Schrodinger Suite 2019-4.
 45 48  0  0  1  0            999 V2000
   -3.5000    2.1718   -0.5856 C   0  0  0  0  0  0
   -4.4967    1.2881   -0.0822 O   0  0  0  0  0  0
   -4.0749    0.0303    0.2553 C   0  0  0  0  0  0
   -4.9511   -0.6595    1.0968 C   0  0  0  0  0  0
   -4.6393   -1.9392    1.5608 C   0  0  0  0  0  0
   -3.4377   -2.5425    1.1929 C   0  0  0  0  0  0
   -2.5709   -1.8784    0.3206 C   0  0  0  0  0  0
   -1.2918   -2.4449   -0.0301 C   0  0  0  0  0  0
   -1.0159   -3.0230   -1.2088 N   0  0  0  0  0  0
    0.3766   -3.1425   -1.1913 O   0  0  0  0  0  0
    0.7854   -2.6411    0.0104 C   0  0  0  0  0  0
    2.2346   -2.3472    0.1735 C   0  0  0  0  0  0
    2.4338   -0.8375    0.2063 C   0  0  0  0  0  0
    2.4200   -0.1596    1.4397 C   0  0  0  0  0  0
    2.3814   -0.8728    2.7618 C   0  0  0  0  0  0
    2.3812    1.1882    1.5387 N   0  0  0  0  0  0
    2.3014    1.9208    0.4289 C   0  0  0  0  0  0
    2.1747    3.2924    0.5845 C   0  0  0  0  0  0
    2.0780    4.1501   -0.5115 C   0  0  0  0  0  0
    2.0899    3.6235   -1.7937 C   0  0  0  0  0  0
    2.1962    2.2417   -1.9683 C   0  0  0  0  0  0
    2.3223    1.3601   -0.8659 C   0  0  0  0  0  0
    2.4351   -0.0551   -0.9766 C   0  0  0  0  0  0
    2.4490   -0.6972   -2.3463 C   0  0  0  0  0  0
   -0.2086   -2.2936    0.7957 N   0  0  0  0  0  0
   -2.8974   -0.6003   -0.1518 C   0  0  0  0  0  0
   -2.0467    0.0202   -0.9872 F   0  0  0  0  0  0
   -3.8914    3.1901   -0.5088 H   0  0  0  0  0  0
   -2.5735    2.1353   -0.0017 H   0  0  0  0  0  0
   -3.3098    1.9679   -1.6430 H   0  0  0  0  0  0
   -5.8790   -0.1828    1.4069 H   0  0  0  0  0  0
   -5.3252   -2.4523    2.2294 H   0  0  0  0  0  0
   -3.1778   -3.5200    1.5936 H   0  0  0  0  0  0
    2.5982   -2.8195    1.0909 H   0  0  0  0  0  0
    2.8253   -2.8118   -0.6237 H   0  0  0  0  0  0
    2.3727   -0.1606    3.5962 H   0  0  0  0  0  0
    1.4759   -1.4812    2.8426 H   0  0  0  0  0  0
    3.2666   -1.5040    2.8816 H   0  0  0  0  0  0
    2.1371    3.7022    1.5918 H   0  0  0  0  0  0
    1.9878    5.2215   -0.3519 H   0  0  0  0  0  0
    2.0041    4.2800   -2.6570 H   0  0  0  0  0  0
    2.1653    1.8607   -2.9870 H   0  0  0  0  0  0
    1.4342   -0.7458   -2.7527 H   0  0  0  0  0  0
    2.8716   -1.7031   -2.3413 H   0  0  0  0  0  0
    3.0895   -0.1296   -3.0324 H   0  0  0  0  0  0
  1  2  1  0  0  0
  1 28  1  0  0  0
  1 29  1  0  0  0
  1 30  1  0  0  0
  2  3  1  0  0  0
  3  4  2  0  0  0
  3 26  1  0  0  0
  4  5  1  0  0  0
  4 31  1  0  0  0
  5  6  2  0  0  0
  5 32  1  0  0  0
  6  7  1  0  0  0
  6 33  1  0  0  0
  7  8  1  0  0  0
  7 26  2  0  0  0
  8  9  2  0  0  0
  8 25  1  0  0  0
  9 10  1  0  0  0
 10 11  1  0  0  0
 11 12  1  0  0  0
 11 25  2  0  0  0
 12 13  1  0  0  0
 12 34  1  0  0  0
 12 35  1  0  0  0
 13 14  1  0  0  0
 13 23  2  0  0  0
 14 15  1  0  0  0
 14 16  2  0  0  0
 15 36  1  0  0  0
 15 37  1  0  0  0
 15 38  1  0  0  0
 16 17  1  0  0  0
 17 18  1  0  0  0
 17 22  2  0  0  0
 18 19  2  0  0  0
 18 39  1  0  0  0
 19 20  1  0  0  0
 19 40  1  0  0  0
 20 21  2  0  0  0
 20 41  1  0  0  0
 21 22  1  0  0  0
 21 42  1  0  0  0
 22 23  1  0  0  0
 23 24  1  0  0  0
 24 43  1  0  0  0
 24 44  1  0  0  0
 24 45  1  0  0  0
 26 27  1  0  0  0
M  END
> <energy>
105.33

> <i_ionizer_Ion_state_n>
0

> <i_ionizer_Tot_Q>
0

> <s_ionizer_Ion_centers>


> <s_ionizer_Ion_types>


> <s_ionizer_Ion_ctrs_in>


> <r_ionizer_Ionization_penalty>
0.00741239

> <r_ionizer_Ionization_penalty_charging>
0

> <r_ionizer_Ionization_penalty_neutral>
0.00741239

$$$$
ZINC001211864142
                    3D
 Schrodinger Suite 2019-4.
 38 42  0  0  1  0            999 V2000
    4.3394    2.2949   -1.7997 O   0  0  0  0  0  0
    3.8261    1.3087   -1.3011 C   0  0  0  0  0  0
    3.3563    0.0804   -2.0374 C   0  0  0  0  0  0
    2.7187   -0.8153   -0.9556 C   0  0  2  0  0  0
    1.2548   -0.9672   -1.1770 C   0  0  0  0  0  0
    0.2938   -0.0723   -1.1208 N   0  0  0  0  0  0
   -0.8305   -0.8355   -1.3328 C   0  0  0  0  0  0
   -2.1634   -0.2703   -1.2636 C   0  0  0  0  0  0
   -2.6021    0.5182   -2.3275 C   0  0  0  0  0  0
   -3.8627    1.0682   -2.2436 C   0  0  0  0  0  0
   -4.6874    0.8951   -1.1910 N   0  0  0  0  0  0
   -4.2609    0.1482   -0.1583 C   0  0  0  0  0  0
   -5.1027   -0.0101    0.9356 C   0  0  0  0  0  0
   -4.7342   -0.7597    2.0554 C   0  0  0  0  0  0
   -3.4944   -1.3781    2.0876 C   0  0  0  0  0  0
   -2.6319   -1.2395    1.0023 C   0  0  0  0  0  0
   -2.9955   -0.4742   -0.1348 C   0  0  0  0  0  0
   -0.5825   -2.1343   -1.5591 N   0  0  0  0  0  0
    0.8036   -2.2253   -1.4513 O   0  0  0  0  0  0
    3.0336   -0.1095    0.3374 C   0  0  0  0  0  0
    2.7684   -0.5341    1.6314 C   0  0  0  0  0  0
    3.0997    0.3158    2.6934 C   0  0  0  0  0  0
    3.6875    1.5694    2.4514 C   0  0  0  0  0  0
    4.0695    2.5920    3.7815 Cl  0  0  0  0  0  0
    3.9648    1.9928    1.1550 C   0  0  0  0  0  0
    3.6291    1.1296    0.1284 C   0  0  0  0  0  0
    4.2309   -0.4139   -2.4743 H   0  0  0  0  0  0
    2.6598    0.3617   -2.8328 H   0  0  0  0  0  0
    3.2063   -1.7981   -0.9590 H   0  0  0  0  0  0
   -1.9805    0.7000   -3.1965 H   0  0  0  0  0  0
   -4.2625    1.6858   -3.0435 H   0  0  0  0  0  0
   -6.0785    0.4689    0.9153 H   0  0  0  0  0  0
   -5.4178   -0.8541    2.8954 H   0  0  0  0  0  0
   -3.1956   -1.9656    2.9510 H   0  0  0  0  0  0
   -1.6663   -1.7379    1.0492 H   0  0  0  0  0  0
    2.3008   -1.4953    1.8271 H   0  0  0  0  0  0
    2.8875    0.0033    3.7141 H   0  0  0  0  0  0
    4.4187    2.9572    0.9483 H   0  0  0  0  0  0
  1  2  2  0  0  0
  2  3  1  0  0  0
  2 26  1  0  0  0
  3  4  1  0  0  0
  3 27  1  0  0  0
  3 28  1  0  0  0
  4  5  1  0  0  0
  4 20  1  0  0  0
  4 29  1  0  0  0
  5  6  2  0  0  0
  5 19  1  0  0  0
  6  7  1  0  0  0
  7  8  1  0  0  0
  7 18  2  0  0  0
  8  9  2  0  0  0
  8 17  1  0  0  0
  9 10  1  0  0  0
  9 30  1  0  0  0
 10 11  2  0  0  0
 10 31  1  0  0  0
 11 12  1  0  0  0
 12 13  2  0  0  0
 12 17  1  0  0  0
 13 14  1  0  0  0
 13 32  1  0  0  0
 14 15  2  0  0  0
 14 33  1  0  0  0
 15 16  1  0  0  0
 15 34  1  0  0  0
 16 17  2  0  0  0
 16 35  1  0  0  0
 18 19  1  0  0  0
 20 21  2  0  0  0
 20 26  1  0  0  0
 21 22  1  0  0  0
 21 36  1  0  0  0
 22 23  2  0  0  0
 22 37  1  0  0  0
 23 24  1  0  0  0
 23 25  1  0  0  0
 25 26  2  0  0  0
 25 38  1  0  0  0
M  END
> <energy>
65.9559

> <i_ionizer_Ion_state_n>
0

> <i_ionizer_Tot_Q>
0

> <s_ionizer_Ion_centers>


> <s_ionizer_Ion_types>


> <s_ionizer_Ion_ctrs_in>


> <r_ionizer_Ionization_penalty>
0

> <r_ionizer_Ionization_penalty_charging>
0

> <r_ionizer_Ionization_penalty_neutral>
0

$$$$
ZINC001211864143
                    3D
 Schrodinger Suite 2019-4.
 38 42  0  0  1  0            999 V2000
    3.2155   -4.0411   -2.1500 O   0  0  0  0  0  0
    2.9471   -3.2402   -1.2744 C   0  0  0  0  0  0
    3.5150   -1.8476   -1.1330 C   0  0  0  0  0  0
    2.7111   -1.2125    0.0215 C   0  0  1  0  0  0
    1.7689   -0.1462   -0.4202 C   0  0  0  0  0  0
    1.3611    0.9177    0.2363 N   0  0  0  0  0  0
    0.3471    1.3928   -0.5683 C   0  0  0  0  0  0
   -0.4571    2.5470   -0.1952 C   0  0  0  0  0  0
    0.2181    3.6807    0.2634 C   0  0  0  0  0  0
   -0.5270    4.7845    0.6105 C   0  0  0  0  0  0
   -1.8705    4.8343    0.5314 N   0  0  0  0  0  0
   -2.5285    3.7441    0.1027 C   0  0  0  0  0  0
   -3.9148    3.8079    0.0361 C   0  0  0  0  0  0
   -4.6909    2.7223   -0.3743 C   0  0  0  0  0  0
   -4.0714    1.5337   -0.7223 C   0  0  0  0  0  0
   -2.6806    1.4447   -0.6702 C   0  0  0  0  0  0
   -1.8780    2.5486   -0.2713 C   0  0  0  0  0  0
    0.1915    0.7031   -1.7087 N   0  0  0  0  0  0
    1.1139   -0.3293   -1.6033 O   0  0  0  0  0  0
    1.9572   -2.3740    0.6195 C   0  0  0  0  0  0
    1.1585   -2.3758    1.7547 C   0  0  0  0  0  0
    0.4628   -3.5457    2.0789 C   0  0  0  0  0  0
    0.5773   -4.6915    1.2738 C   0  0  0  0  0  0
   -0.3003   -6.1091    1.6994 Cl  0  0  0  0  0  0
    1.3831   -4.6927    0.1377 C   0  0  0  0  0  0
    2.0555   -3.5217   -0.1592 C   0  0  0  0  0  0
    4.5699   -1.9447   -0.8544 H   0  0  0  0  0  0
    3.4408   -1.3008   -2.0772 H   0  0  0  0  0  0
    3.4063   -0.7957    0.7598 H   0  0  0  0  0  0
    1.3004    3.7051    0.3409 H   0  0  0  0  0  0
   -0.0505    5.6916    0.9705 H   0  0  0  0  0  0
   -4.4074    4.7367    0.3137 H   0  0  0  0  0  0
   -5.7739    2.8115   -0.4162 H   0  0  0  0  0  0
   -4.6638    0.6783   -1.0370 H   0  0  0  0  0  0
   -2.2286    0.4945   -0.9445 H   0  0  0  0  0  0
    1.0452   -1.4840    2.3669 H   0  0  0  0  0  0
   -0.1802   -3.5589    2.9576 H   0  0  0  0  0  0
    1.4774   -5.5677   -0.4960 H   0  0  0  0  0  0
  1  2  2  0  0  0
  2  3  1  0  0  0
  2 26  1  0  0  0
  3  4  1  0  0  0
  3 27  1  0  0  0
  3 28  1  0  0  0
  4  5  1  0  0  0
  4 20  1  0  0  0
  4 29  1  0  0  0
  5  6  2  0  0  0
  5 19  1  0  0  0
  6  7  1  0  0  0
  7  8  1  0  0  0
  7 18  2  0  0  0
  8  9  2  0  0  0
  8 17  1  0  0  0
  9 10  1  0  0  0
  9 30  1  0  0  0
 10 11  2  0  0  0
 10 31  1  0  0  0
 11 12  1  0  0  0
 12 13  2  0  0  0
 12 17  1  0  0  0
 13 14  1  0  0  0
 13 32  1  0  0  0
 14 15  2  0  0  0
 14 33  1  0  0  0
 15 16  1  0  0  0
 15 34  1  0  0  0
 16 17  2  0  0  0
 16 35  1  0  0  0
 18 19  1  0  0  0
 20 21  2  0  0  0
 20 26  1  0  0  0
 21 22  1  0  0  0
 21 36  1  0  0  0
 22 23  2  0  0  0
 22 37  1  0  0  0
 23 24  1  0  0  0
 23 25  1  0  0  0
 25 26  2  0  0  0
 25 38  1  0  0  0
M  END
> <energy>
65.939

> <i_ionizer_Ion_state_n>
0

> <i_ionizer_Tot_Q>
0

> <s_ionizer_Ion_centers>


> <s_ionizer_Ion_types>


> <s_ionizer_Ion_ctrs_in>


> <r_ionizer_Ionization_penalty>
0

> <r_ionizer_Ionization_penalty_charging>
0

> <r_ionizer_Ionization_penalty_neutral>
0

$$$$
ZINC001211864148
                    3D
 Schrodinger Suite 2019-4.
 48 51  0  0  1  0            999 V2000
    4.4437    2.2549    1.9021 C   0  0  0  0  0  0
    3.7545    1.2697    0.9752 C   0  0  0  0  0  0
    4.1516   -0.0467    1.3766 O   0  0  0  0  0  0
    3.7606   -1.0607    0.5453 C   0  0  0  0  0  0
    4.5879   -2.1823    0.5243 C   0  0  0  0  0  0
    4.2765   -3.2773   -0.2837 C   0  0  0  0  0  0
    3.1138   -3.2687   -1.0597 C   0  0  0  0  0  0
    2.2503   -2.1681   -1.0160 C   0  0  0  0  0  0
    0.9755   -2.1526   -1.7249 C   0  0  0  0  0  0
    0.3814   -3.2233   -2.2766 N   0  0  0  0  0  0
   -0.8726   -2.7423   -2.6608 O   0  0  0  0  0  0
   -0.9012   -1.4213   -2.3213 C   0  0  0  0  0  0
   -2.1783   -0.6766   -2.5242 C   0  0  0  0  0  0
   -2.4644    0.2620   -1.3569 C   0  0  0  0  0  0
   -2.0063    1.5897   -1.3885 C   0  0  0  0  0  0
   -1.3856    2.1934   -2.6185 C   0  0  0  0  0  0
   -2.0802    2.4304   -0.3275 N   0  0  0  0  0  0
   -2.5727    1.9840    0.8287 C   0  0  0  0  0  0
   -2.5802    2.8546    1.9152 C   0  0  0  0  0  0
   -3.0604    2.4648    3.1662 C   0  0  0  0  0  0
   -3.5368    1.1767    3.3448 C   0  0  0  0  0  0
   -3.5386    0.2921    2.2646 C   0  0  0  0  0  0
   -3.0745    0.6740    0.9827 C   0  0  0  0  0  0
   -3.0696   -0.1832   -0.1579 C   0  0  0  0  0  0
   -3.6586   -1.5734   -0.0564 C   0  0  0  0  0  0
    0.2245   -1.0021   -1.7985 N   0  0  0  0  0  0
    2.5894   -1.0639   -0.2109 C   0  0  0  0  0  0
    4.2221    3.2896    1.6217 H   0  0  0  0  0  0
    4.1224    2.0921    2.9365 H   0  0  0  0  0  0
    5.5277    2.1070    1.8782 H   0  0  0  0  0  0
    2.6701    1.3965    1.0680 H   0  0  0  0  0  0
    4.0716    1.4610   -0.0583 H   0  0  0  0  0  0
    5.4862   -2.2004    1.1368 H   0  0  0  0  0  0
    4.9399   -4.1384   -0.3060 H   0  0  0  0  0  0
    2.8780   -4.1366   -1.6712 H   0  0  0  0  0  0
   -2.1133   -0.1221   -3.4672 H   0  0  0  0  0  0
   -3.0094   -1.3723   -2.6816 H   0  0  0  0  0  0
   -1.0944    3.2348   -2.4431 H   0  0  0  0  0  0
   -2.1037    2.1928   -3.4432 H   0  0  0  0  0  0
   -0.4873    1.6441   -2.9105 H   0  0  0  0  0  0
   -2.1904    3.8627    1.7860 H   0  0  0  0  0  0
   -3.0564    3.1686    3.9941 H   0  0  0  0  0  0
   -3.9018    0.8516    4.3141 H   0  0  0  0  0  0
   -3.8999   -0.7154    2.4455 H   0  0  0  0  0  0
   -4.0541   -1.9286   -1.0103 H   0  0  0  0  0  0
   -2.9103   -2.2765    0.3158 H   0  0  0  0  0  0
   -4.5270   -1.5905    0.6088 H   0  0  0  0  0  0
    1.9001   -0.2236   -0.1574 H   0  0  0  0  0  0
  1  2  1  0  0  0
  1 28  1  0  0  0
  1 29  1  0  0  0
  1 30  1  0  0  0
  2  3  1  0  0  0
  2 31  1  0  0  0
  2 32  1  0  0  0
  3  4  1  0  0  0
  4  5  2  0  0  0
  4 27  1  0  0  0
  5  6  1  0  0  0
  5 33  1  0  0  0
  6  7  2  0  0  0
  6 34  1  0  0  0
  7  8  1  0  0  0
  7 35  1  0  0  0
  8  9  1  0  0  0
  8 27  2  0  0  0
  9 10  2  0  0  0
  9 26  1  0  0  0
 10 11  1  0  0  0
 11 12  1  0  0  0
 12 13  1  0  0  0
 12 26  2  0  0  0
 13 14  1  0  0  0
 13 36  1  0  0  0
 13 37  1  0  0  0
 14 15  1  0  0  0
 14 24  2  0  0  0
 15 16  1  0  0  0
 15 17  2  0  0  0
 16 38  1  0  0  0
 16 39  1  0  0  0
 16 40  1  0  0  0
 17 18  1  0  0  0
 18 19  1  0  0  0
 18 23  2  0  0  0
 19 20  2  0  0  0
 19 41  1  0  0  0
 20 21  1  0  0  0
 20 42  1  0  0  0
 21 22  2  0  0  0
 21 43  1  0  0  0
 22 23  1  0  0  0
 22 44  1  0  0  0
 23 24  1  0  0  0
 24 25  1  0  0  0
 25 45  1  0  0  0
 25 46  1  0  0  0
 25 47  1  0  0  0
 27 48  1  0  0  0
M  END
> <energy>
87.8047

> <i_ionizer_Ion_state_n>
0

> <i_ionizer_Tot_Q>
0

> <s_ionizer_Ion_centers>


> <s_ionizer_Ion_types>


> <s_ionizer_Ion_ctrs_in>


> <r_ionizer_Ionization_penalty>
0.00741239

> <r_ionizer_Ionization_penalty_charging>
0

> <r_ionizer_Ionization_penalty_neutral>
0.00741239

$$$$
ZINC001211864157
                    3D
 Schrodinger Suite 2019-4.
 46 50  0  0  1  0            999 V2000
    3.8308    2.8261    1.4673 C   0  0  0  0  0  0
    4.3843    2.1358    0.2815 C   0  0  0  0  0  0
    5.4274    2.6396   -0.3925 N   0  0  0  0  0  0
    5.6599    1.7508   -1.4370 O   0  0  0  0  0  0
    4.7657    0.7272   -1.3750 C   0  0  0  0  0  0
    4.6692   -0.3541   -2.2480 C   0  0  0  0  0  0
    3.6535   -1.2878   -1.9753 C   0  0  0  0  0  0
    2.7800   -1.1321   -0.8847 C   0  0  0  0  0  0
    1.6718   -2.0537   -0.6358 C   0  0  0  0  0  0
    1.3645   -3.1278   -1.3833 N   0  0  0  0  0  0
    0.1390   -3.5563   -0.8606 O   0  0  0  0  0  0
   -0.1587   -2.7081    0.1664 C   0  0  0  0  0  0
   -1.5078   -2.8073    0.7935 C   0  0  0  0  0  0
   -2.3193   -1.5517    0.5035 C   0  0  0  0  0  0
   -3.2381   -1.5323   -0.5541 C   0  0  0  0  0  0
   -3.6389   -2.7719   -1.3043 C   0  0  0  0  0  0
   -3.8418   -0.4025   -0.9901 N   0  0  0  0  0  0
   -3.5312    0.7677   -0.4246 C   0  0  0  0  0  0
   -4.0849    1.9195   -0.9711 C   0  0  0  0  0  0
   -3.7930    3.1884   -0.4684 C   0  0  0  0  0  0
   -2.9455    3.3122    0.6211 C   0  0  0  0  0  0
   -2.3939    2.1654    1.1948 C   0  0  0  0  0  0
   -2.6606    0.8727    0.6757 C   0  0  0  0  0  0
   -2.0742   -0.3266    1.1758 C   0  0  0  0  0  0
   -1.1496   -0.2403    2.3699 C   0  0  0  0  0  0
    0.7806   -1.8181    0.3867 N   0  0  0  0  0  0
    2.9306   -0.0199   -0.0323 C   0  0  0  0  0  0
    3.9373    0.9204   -0.2890 C   0  0  0  0  0  0
    4.1422    2.3167    2.3839 H   0  0  0  0  0  0
    2.7358    2.8174    1.4354 H   0  0  0  0  0  0
    4.1568    3.8695    1.5177 H   0  0  0  0  0  0
    5.3397   -0.4594   -3.0934 H   0  0  0  0  0  0
    3.5390   -2.1368   -2.6478 H   0  0  0  0  0  0
   -1.4090   -2.9656    1.8720 H   0  0  0  0  0  0
   -2.0221   -3.7073    0.4397 H   0  0  0  0  0  0
   -4.1585   -3.4645   -0.6363 H   0  0  0  0  0  0
   -4.3248   -2.5253   -2.1222 H   0  0  0  0  0  0
   -2.7660   -3.2645   -1.7420 H   0  0  0  0  0  0
   -4.7459    1.8271   -1.8304 H   0  0  0  0  0  0
   -4.2268    4.0706   -0.9332 H   0  0  0  0  0  0
   -2.7049    4.2928    1.0212 H   0  0  0  0  0  0
   -1.7272    2.2975    2.0404 H   0  0  0  0  0  0
   -1.6503    0.2899    3.1876 H   0  0  0  0  0  0
   -0.2300    0.2898    2.1017 H   0  0  0  0  0  0
   -0.8667   -1.2102    2.7841 H   0  0  0  0  0  0
    2.2618    0.1273    0.8113 H   0  0  0  0  0  0
  1  2  1  0  0  0
  1 29  1  0  0  0
  1 30  1  0  0  0
  1 31  1  0  0  0
  2  3  2  0  0  0
  2 28  1  0  0  0
  3  4  1  0  0  0
  4  5  1  0  0  0
  5  6  1  0  0  0
  5 28  2  0  0  0
  6  7  2  0  0  0
  6 32  1  0  0  0
  7  8  1  0  0  0
  7 33  1  0  0  0
  8  9  1  0  0  0
  8 27  2  0  0  0
  9 10  2  0  0  0
  9 26  1  0  0  0
 10 11  1  0  0  0
 11 12  1  0  0  0
 12 13  1  0  0  0
 12 26  2  0  0  0
 13 14  1  0  0  0
 13 34  1  0  0  0
 13 35  1  0  0  0
 14 15  1  0  0  0
 14 24  2  0  0  0
 15 16  1  0  0  0
 15 17  2  0  0  0
 16 36  1  0  0  0
 16 37  1  0  0  0
 16 38  1  0  0  0
 17 18  1  0  0  0
 18 19  1  0  0  0
 18 23  2  0  0  0
 19 20  2  0  0  0
 19 39  1  0  0  0
 20 21  1  0  0  0
 20 40  1  0  0  0
 21 22  2  0  0  0
 21 41  1  0  0  0
 22 23  1  0  0  0
 22 42  1  0  0  0
 23 24  1  0  0  0
 24 25  1  0  0  0
 25 43  1  0  0  0
 25 44  1  0  0  0
 25 45  1  0  0  0
 27 28  1  0  0  0
 27 46  1  0  0  0
M  END
> <energy>
94.2673

> <i_ionizer_Ion_state_n>
0

> <i_ionizer_Tot_Q>
0

> <s_ionizer_Ion_centers>


> <s_ionizer_Ion_types>


> <s_ionizer_Ion_ctrs_in>


> <r_ionizer_Ionization_penalty>
0.00741239

> <r_ionizer_Ionization_penalty_charging>
0

> <r_ionizer_Ionization_penalty_neutral>
0.00741239

$$$$
ZINC001211864162
                    3D
 Schrodinger Suite 2019-4.
 47 51  0  0  1  0            999 V2000
   -2.3869   -2.1400   -1.9552 C   0  0  0  0  0  0
   -2.6679   -0.9391   -1.0950 C   0  0  0  0  0  0
   -3.1791    0.1166   -1.7683 N   0  0  0  0  0  0
   -3.4021    1.2637   -1.1202 C   0  0  0  0  0  0
   -3.8726    2.3400   -1.8577 C   0  0  0  0  0  0
   -4.0930    3.5904   -1.2809 C   0  0  0  0  0  0
   -3.8444    3.7719    0.0692 C   0  0  0  0  0  0
   -3.3841    2.6990    0.8322 C   0  0  0  0  0  0
   -3.1554    1.4239    0.2580 C   0  0  0  0  0  0
   -2.6691    0.2960    0.9793 C   0  0  0  0  0  0
   -2.3702    0.4402    2.4551 C   0  0  0  0  0  0
   -2.4039   -0.9093    0.2823 C   0  0  0  0  0  0
   -1.7978   -2.1126    0.9755 C   0  0  0  0  0  0
   -0.3419   -1.9656    1.2273 C   0  0  0  0  0  0
    0.6249   -1.5604    0.4323 N   0  0  0  0  0  0
    1.7424   -1.7018    1.2250 C   0  0  0  0  0  0
    3.0856   -1.4115    0.7459 C   0  0  0  0  0  0
    4.1660   -2.2158    1.1607 C   0  0  0  0  0  0
    5.4741   -1.9848    0.7014 C   0  0  0  0  0  0
    5.7345   -0.9389   -0.1782 C   0  0  0  0  0  0
    4.6645   -0.1519   -0.5643 C   0  0  0  0  0  0
    3.3577   -0.3599   -0.1268 C   0  0  0  0  0  0
    2.4130    0.6579   -0.6935 C   0  0  0  0  0  0
    3.3042    1.6013   -1.5219 C   0  0  0  0  0  0
    4.6867    1.0091   -1.4411 C   0  0  0  0  0  0
    5.6860    1.4235   -2.0000 O   0  0  0  0  0  0
    1.4808   -2.1720    2.4563 N   0  0  0  0  0  0
    0.0996   -2.3379    2.4613 O   0  0  0  0  0  0
   -2.6158   -1.9254   -3.0054 H   0  0  0  0  0  0
   -1.3281   -2.4135   -1.8996 H   0  0  0  0  0  0
   -3.0104   -2.9846   -1.6464 H   0  0  0  0  0  0
   -4.0607    2.2007   -2.9203 H   0  0  0  0  0  0
   -4.4436    4.4156   -1.8925 H   0  0  0  0  0  0
   -3.9933    4.7438    0.5310 H   0  0  0  0  0  0
   -3.1907    2.8784    1.8854 H   0  0  0  0  0  0
   -1.4298    0.9843    2.5890 H   0  0  0  0  0  0
   -2.2875   -0.5142    2.9794 H   0  0  0  0  0  0
   -3.1783    0.9736    2.9656 H   0  0  0  0  0  0
   -2.3370   -2.3067    1.9094 H   0  0  0  0  0  0
   -1.9525   -3.0272    0.3959 H   0  0  0  0  0  0
    3.9978   -3.0465    1.8457 H   0  0  0  0  0  0
    6.2848   -2.6260    1.0370 H   0  0  0  0  0  0
    6.7362   -0.7367   -0.5437 H   0  0  0  0  0  0
    1.9079    1.2131    0.1057 H   0  0  0  0  0  0
    1.6631    0.1850   -1.3358 H   0  0  0  0  0  0
    3.3154    2.6104   -1.0970 H   0  0  0  0  0  0
    2.9708    1.6438   -2.5623 H   0  0  0  0  0  0
  1  2  1  0  0  0
  1 29  1  0  0  0
  1 30  1  0  0  0
  1 31  1  0  0  0
  2  3  2  0  0  0
  2 12  1  0  0  0
  3  4  1  0  0  0
  4  5  2  0  0  0
  4  9  1  0  0  0
  5  6  1  0  0  0
  5 32  1  0  0  0
  6  7  2  0  0  0
  6 33  1  0  0  0
  7  8  1  0  0  0
  7 34  1  0  0  0
  8  9  2  0  0  0
  8 35  1  0  0  0
  9 10  1  0  0  0
 10 11  1  0  0  0
 10 12  2  0  0  0
 11 36  1  0  0  0
 11 37  1  0  0  0
 11 38  1  0  0  0
 12 13  1  0  0  0
 13 14  1  0  0  0
 13 39  1  0  0  0
 13 40  1  0  0  0
 14 15  2  0  0  0
 14 28  1  0  0  0
 15 16  1  0  0  0
 16 17  1  0  0  0
 16 27  2  0  0  0
 17 18  2  0  0  0
 17 22  1  0  0  0
 18 19  1  0  0  0
 18 41  1  0  0  0
 19 20  2  0  0  0
 19 42  1  0  0  0
 20 21  1  0  0  0
 20 43  1  0  0  0
 21 22  2  0  0  0
 21 25  1  0  0  0
 22 23  1  0  0  0
 23 24  1  0  0  0
 23 44  1  0  0  0
 23 45  1  0  0  0
 24 25  1  0  0  0
 24 46  1  0  0  0
 24 47  1  0  0  0
 25 26  2  0  0  0
 27 28  1  0  0  0
M  END
> <energy>
98.7386

> <i_ionizer_Ion_state_n>
0

> <i_ionizer_Tot_Q>
0

> <s_ionizer_Ion_centers>


> <s_ionizer_Ion_types>


> <s_ionizer_Ion_ctrs_in>


> <r_ionizer_Ionization_penalty>
0

> <r_ionizer_Ionization_penalty_charging>
0

> <r_ionizer_Ionization_penalty_neutral>
0

$$$$
ZINC001211864166
                    3D
 Schrodinger Suite 2019-4.
 47 51  0  0  1  0            999 V2000
   -1.5216   -2.9146   -2.4953 C   0  0  0  0  0  0
   -2.0770   -1.8246   -1.6209 C   0  0  0  0  0  0
   -2.5079   -0.7306   -2.2987 N   0  0  0  0  0  0
   -3.0881    0.2731   -1.6296 C   0  0  0  0  0  0
   -3.5013    1.3912   -2.3476 C   0  0  0  0  0  0
   -4.1554    2.4648   -1.7457 C   0  0  0  0  0  0
   -4.4075    2.4277   -0.3831 C   0  0  0  0  0  0
   -3.9793    1.3285    0.3614 C   0  0  0  0  0  0
   -3.2992    0.2365   -0.2429 C   0  0  0  0  0  0
   -2.8072   -0.9007    0.4707 C   0  0  0  0  0  0
   -2.9899   -0.9296    1.9696 C   0  0  0  0  0  0
   -2.1582   -1.9528   -0.2289 C   0  0  0  0  0  0
   -1.4477   -3.0964    0.4897 C   0  0  0  0  0  0
   -0.0536   -2.7151    0.8671 C   0  0  0  0  0  0
    0.4754   -1.5207    0.9206 N   0  0  0  0  0  0
    1.7934   -1.7761    1.2001 C   0  0  0  0  0  0
    2.7425   -0.6757    1.1573 C   0  0  0  0  0  0
    3.6992   -0.4483    2.1674 C   0  0  0  0  0  0
    4.4919    0.7084    2.1406 C   0  0  0  0  0  0
    4.3334    1.5819    1.0771 C   0  0  0  0  0  0
    3.4269    1.3523    0.0523 C   0  0  0  0  0  0
    2.6109    0.2365    0.0924 C   0  0  0  0  0  0
    3.4605    2.4039   -1.0094 C   0  0  0  0  0  0
    4.4798    3.4300   -0.4861 C   0  0  0  0  0  0
    4.9831    2.8626    0.8213 C   0  0  0  0  0  0
    5.8002    3.3722    1.5704 O   0  0  0  0  0  0
    2.0750   -3.0735    1.3924 N   0  0  0  0  0  0
    0.8357   -3.7094    1.1685 O   0  0  0  0  0  0
   -2.0669   -3.8468   -2.3069 H   0  0  0  0  0  0
   -0.4517   -3.0542   -2.3122 H   0  0  0  0  0  0
   -1.6587   -2.6675   -3.5539 H   0  0  0  0  0  0
   -3.3099    1.4189   -3.4183 H   0  0  0  0  0  0
   -4.4702    3.3196   -2.3389 H   0  0  0  0  0  0
   -4.9321    3.2488    0.1030 H   0  0  0  0  0  0
   -4.1918    1.3276    1.4275 H   0  0  0  0  0  0
   -2.4948   -0.0652    2.4292 H   0  0  0  0  0  0
   -4.0626   -0.9097    2.2013 H   0  0  0  0  0  0
   -2.5827   -1.8138    2.4613 H   0  0  0  0  0  0
   -2.0107   -3.4090    1.3694 H   0  0  0  0  0  0
   -1.4230   -3.9933   -0.1344 H   0  0  0  0  0  0
    3.8028   -1.1502    2.9913 H   0  0  0  0  0  0
    5.1968    0.9291    2.9407 H   0  0  0  0  0  0
    1.8591    0.0747   -0.6778 H   0  0  0  0  0  0
    2.4773    2.8659   -1.1602 H   0  0  0  0  0  0
    3.8001    1.9700   -1.9573 H   0  0  0  0  0  0
    3.9978    4.3953   -0.3034 H   0  0  0  0  0  0
    5.3075    3.5583   -1.1912 H   0  0  0  0  0  0
  1  2  1  0  0  0
  1 29  1  0  0  0
  1 30  1  0  0  0
  1 31  1  0  0  0
  2  3  2  0  0  0
  2 12  1  0  0  0
  3  4  1  0  0  0
  4  5  2  0  0  0
  4  9  1  0  0  0
  5  6  1  0  0  0
  5 32  1  0  0  0
  6  7  2  0  0  0
  6 33  1  0  0  0
  7  8  1  0  0  0
  7 34  1  0  0  0
  8  9  2  0  0  0
  8 35  1  0  0  0
  9 10  1  0  0  0
 10 11  1  0  0  0
 10 12  2  0  0  0
 11 36  1  0  0  0
 11 37  1  0  0  0
 11 38  1  0  0  0
 12 13  1  0  0  0
 13 14  1  0  0  0
 13 39  1  0  0  0
 13 40  1  0  0  0
 14 15  2  0  0  0
 14 28  1  0  0  0
 15 16  1  0  0  0
 16 17  1  0  0  0
 16 27  2  0  0  0
 17 18  2  0  0  0
 17 22  1  0  0  0
 18 19  1  0  0  0
 18 41  1  0  0  0
 19 20  2  0  0  0
 19 42  1  0  0  0
 20 21  1  0  0  0
 20 25  1  0  0  0
 21 22  2  0  0  0
 21 23  1  0  0  0
 22 43  1  0  0  0
 23 24  1  0  0  0
 23 44  1  0  0  0
 23 45  1  0  0  0
 24 25  1  0  0  0
 24 46  1  0  0  0
 24 47  1  0  0  0
 25 26  2  0  0  0
 27 28  1  0  0  0
M  END
> <energy>
111.631

> <i_ionizer_Ion_state_n>
0

> <i_ionizer_Tot_Q>
0

> <s_ionizer_Ion_centers>


> <s_ionizer_Ion_types>


> <s_ionizer_Ion_ctrs_in>


> <r_ionizer_Ionization_penalty>
0

> <r_ionizer_Ionization_penalty_charging>
0

> <r_ionizer_Ionization_penalty_neutral>
0

$$$$
ZINC001211864175
                    3D
 Schrodinger Suite 2019-4.
 46 49  0  0  1  0            999 V2000
   -4.3465   -1.8584   -1.1974 C   0  0  0  0  0  0
   -3.3872   -0.7489   -0.8627 C   0  0  0  0  0  0
   -2.3581   -0.5368   -1.4977 O   0  0  0  0  0  0
   -3.7400    0.1407    0.2618 C   0  0  0  0  0  0
   -4.8722    0.9537    0.1134 C   0  0  0  0  0  0
   -5.2096    1.8640    1.1141 C   0  0  0  0  0  0
   -4.4174    1.9648    2.2569 C   0  0  0  0  0  0
   -3.2836    1.1578    2.4007 C   0  0  0  0  0  0
   -2.9326    0.2324    1.4046 C   0  0  0  0  0  0
   -1.7458   -0.5856    1.5789 C   0  0  0  0  0  0
   -1.7077   -1.9078    1.3491 N   0  0  0  0  0  0
   -0.3613   -2.2275    1.5147 O   0  0  0  0  0  0
    0.2670   -1.0712    1.8724 C   0  0  0  0  0  0
    1.7489   -1.1173    1.9747 C   0  0  0  0  0  0
    2.4089   -0.7238    0.6653 C   0  0  0  0  0  0
    2.8562   -1.7074   -0.2305 C   0  0  0  0  0  0
    2.7737   -3.1802    0.0657 C   0  0  0  0  0  0
    3.3733   -1.4129   -1.4479 N   0  0  0  0  0  0
    3.4092   -0.1387   -1.8590 C   0  0  0  0  0  0
    3.8717    0.1209   -3.1445 C   0  0  0  0  0  0
    3.9192    1.4130   -3.6716 C   0  0  0  0  0  0
    3.4949    2.4796   -2.8973 C   0  0  0  0  0  0
    3.0354    2.2435   -1.6023 C   0  0  0  0  0  0
    2.9833    0.9354   -1.0552 C   0  0  0  0  0  0
    2.5018    0.6329    0.2513 C   0  0  0  0  0  0
    2.0391    1.7711    1.1347 C   0  0  0  0  0  0
   -0.5531   -0.0533    2.0076 N   0  0  0  0  0  0
   -5.0874   -1.9917   -0.4035 H   0  0  0  0  0  0
   -4.8592   -1.6224   -2.1338 H   0  0  0  0  0  0
   -3.7882   -2.7926   -1.3017 H   0  0  0  0  0  0
   -5.4727    0.9064   -0.7911 H   0  0  0  0  0  0
   -6.0798    2.5071    0.9951 H   0  0  0  0  0  0
   -4.6758    2.6805    3.0343 H   0  0  0  0  0  0
   -2.6729    1.2553    3.2967 H   0  0  0  0  0  0
    2.0916   -0.4647    2.7852 H   0  0  0  0  0  0
    2.0648   -2.1157    2.2988 H   0  0  0  0  0  0
    3.1669   -3.7659   -0.7728 H   0  0  0  0  0  0
    3.3664   -3.4292    0.9521 H   0  0  0  0  0  0
    1.7334   -3.4850    0.2158 H   0  0  0  0  0  0
    4.1907   -0.7159   -3.7622 H   0  0  0  0  0  0
    4.2733    1.5753   -4.6855 H   0  0  0  0  0  0
    3.5131    3.4899   -3.2949 H   0  0  0  0  0  0
    2.6897    3.0997   -1.0283 H   0  0  0  0  0  0
    2.7939    2.5640    1.1581 H   0  0  0  0  0  0
    1.0927    2.1763    0.7607 H   0  0  0  0  0  0
    1.8919    1.4886    2.1774 H   0  0  0  0  0  0
  1  2  1  0  0  0
  1 28  1  0  0  0
  1 29  1  0  0  0
  1 30  1  0  0  0
  2  3  2  0  0  0
  2  4  1  0  0  0
  4  5  2  0  0  0
  4  9  1  0  0  0
  5  6  1  0  0  0
  5 31  1  0  0  0
  6  7  2  0  0  0
  6 32  1  0  0  0
  7  8  1  0  0  0
  7 33  1  0  0  0
  8  9  2  0  0  0
  8 34  1  0  0  0
  9 10  1  0  0  0
 10 11  2  0  0  0
 10 27  1  0  0  0
 11 12  1  0  0  0
 12 13  1  0  0  0
 13 14  1  0  0  0
 13 27  2  0  0  0
 14 15  1  0  0  0
 14 35  1  0  0  0
 14 36  1  0  0  0
 15 16  1  0  0  0
 15 25  2  0  0  0
 16 17  1  0  0  0
 16 18  2  0  0  0
 17 37  1  0  0  0
 17 38  1  0  0  0
 17 39  1  0  0  0
 18 19  1  0  0  0
 19 20  1  0  0  0
 19 24  2  0  0  0
 20 21  2  0  0  0
 20 40  1  0  0  0
 21 22  1  0  0  0
 21 41  1  0  0  0
 22 23  2  0  0  0
 22 42  1  0  0  0
 23 24  1  0  0  0
 23 43  1  0  0  0
 24 25  1  0  0  0
 25 26  1  0  0  0
 26 44  1  0  0  0
 26 45  1  0  0  0
 26 46  1  0  0  0
M  END
> <energy>
100.925

> <i_ionizer_Ion_state_n>
0

> <i_ionizer_Tot_Q>
0

> <s_ionizer_Ion_centers>


> <s_ionizer_Ion_types>


> <s_ionizer_Ion_ctrs_in>


> <r_ionizer_Ionization_penalty>
0.00741239

> <r_ionizer_Ionization_penalty_charging>
0

> <r_ionizer_Ionization_penalty_neutral>
0.00741239

$$$$
ZINC001211864250
                    3D
 Schrodinger Suite 2019-4.
 38 42  0  0  1  0            999 V2000
    3.3897    0.6557   -3.1050 O   0  0  0  0  0  0
    3.2578    0.1849   -1.9897 C   0  0  0  0  0  0
    3.1864   -1.2826   -1.6393 C   0  0  0  0  0  0
    2.8307   -1.3082   -0.1368 C   0  0  2  0  0  0
    1.4075   -1.7113    0.0484 C   0  0  0  0  0  0
    0.3536   -0.9713    0.2875 N   0  0  0  0  0  0
   -0.6776   -1.8793    0.2597 C   0  0  0  0  0  0
   -2.0658   -1.4914    0.4709 C   0  0  0  0  0  0
   -2.8920   -2.3368    1.2382 C   0  0  0  0  0  0
   -4.2071   -1.9836    1.5077 C   0  0  0  0  0  0
   -4.7049   -0.7837    1.0160 C   0  0  0  0  0  0
   -3.8964    0.0620    0.2342 C   0  0  0  0  0  0
   -4.4050    1.2677   -0.2712 C   0  0  0  0  0  0
   -3.6143    2.0831   -1.0689 C   0  0  0  0  0  0
   -2.3312    1.6641   -1.3386 C   0  0  0  0  0  0
   -1.8082    0.5165   -0.8593 N   0  0  0  0  0  0
   -2.5590   -0.2870   -0.0661 C   0  0  0  0  0  0
   -0.2660   -3.1500    0.0916 N   0  0  0  0  0  0
    1.1148   -3.0364   -0.0709 O   0  0  0  0  0  0
    3.0789    0.1128    0.3092 C   0  0  0  0  0  0
    3.0608    0.6211    1.6018 C   0  0  0  0  0  0
    3.1619    2.0068    1.7722 C   0  0  0  0  0  0
    3.2767    2.8585    0.6599 C   0  0  0  0  0  0
    3.3408    4.5630    0.9040 Cl  0  0  0  0  0  0
    3.3201    2.3492   -0.6344 C   0  0  0  0  0  0
    3.2265    0.9774   -0.7708 C   0  0  0  0  0  0
    2.4463   -1.7849   -2.2713 H   0  0  0  0  0  0
    4.1748   -1.7256   -1.8086 H   0  0  0  0  0  0
    3.4892   -2.0016    0.3990 H   0  0  0  0  0  0
   -2.5014   -3.2726    1.6359 H   0  0  0  0  0  0
   -4.8393   -2.6399    2.1007 H   0  0  0  0  0  0
   -5.7338   -0.5115    1.2400 H   0  0  0  0  0  0
   -5.4223    1.5775   -0.0461 H   0  0  0  0  0  0
   -3.9886    3.0186   -1.4711 H   0  0  0  0  0  0
   -1.6650    2.2505   -1.9638 H   0  0  0  0  0  0
    2.9305   -0.0268    2.4641 H   0  0  0  0  0  0
    3.1236    2.4267    2.7746 H   0  0  0  0  0  0
    3.4076    2.9885   -1.5037 H   0  0  0  0  0  0
  1  2  2  0  0  0
  2  3  1  0  0  0
  2 26  1  0  0  0
  3  4  1  0  0  0
  3 27  1  0  0  0
  3 28  1  0  0  0
  4  5  1  0  0  0
  4 20  1  0  0  0
  4 29  1  0  0  0
  5  6  2  0  0  0
  5 19  1  0  0  0
  6  7  1  0  0  0
  7  8  1  0  0  0
  7 18  2  0  0  0
  8  9  2  0  0  0
  8 17  1  0  0  0
  9 10  1  0  0  0
  9 30  1  0  0  0
 10 11  2  0  0  0
 10 31  1  0  0  0
 11 12  1  0  0  0
 11 32  1  0  0  0
 12 13  2  0  0  0
 12 17  1  0  0  0
 13 14  1  0  0  0
 13 33  1  0  0  0
 14 15  2  0  0  0
 14 34  1  0  0  0
 15 16  1  0  0  0
 15 35  1  0  0  0
 16 17  2  0  0  0
 18 19  1  0  0  0
 20 21  2  0  0  0
 20 26  1  0  0  0
 21 22  1  0  0  0
 21 36  1  0  0  0
 22 23  2  0  0  0
 22 37  1  0  0  0
 23 24  1  0  0  0
 23 25  1  0  0  0
 25 26  2  0  0  0
 25 38  1  0  0  0
M  END
> <energy>
84.9432

> <i_ionizer_Ion_state_n>
0

> <i_ionizer_Tot_Q>
0

> <s_ionizer_Ion_centers>


> <s_ionizer_Ion_types>


> <s_ionizer_Ion_ctrs_in>


> <r_ionizer_Ionization_penalty>
0.00741239

> <r_ionizer_Ionization_penalty_charging>
0

> <r_ionizer_Ionization_penalty_neutral>
0.00741239

$$$$
ZINC001211864251
                    3D
 Schrodinger Suite 2019-4.
 38 42  0  0  1  0            999 V2000
    1.1151   -0.8556   -4.2728 O   0  0  0  0  0  0
    1.4226   -1.2612   -3.1663 C   0  0  0  0  0  0
    2.2959   -0.5506   -2.1637 C   0  0  0  0  0  0
    2.2369   -1.4303   -0.8939 C   0  0  1  0  0  0
    1.5047   -0.7489    0.2044 C   0  0  0  0  0  0
    0.3824   -0.0705    0.1710 N   0  0  0  0  0  0
    0.2570    0.3531    1.4741 C   0  0  0  0  0  0
   -0.8472    1.1788    1.9165 C   0  0  0  0  0  0
   -1.8279    0.6021    2.7451 C   0  0  0  0  0  0
   -2.9077    1.3594    3.1809 C   0  0  0  0  0  0
   -3.0049    2.6927    2.7952 C   0  0  0  0  0  0
   -2.0229    3.2774    1.9747 C   0  0  0  0  0  0
   -2.1167    4.6255    1.5994 C   0  0  0  0  0  0
   -1.1417    5.1931    0.7900 C   0  0  0  0  0  0
   -0.0970    4.3908    0.3835 C   0  0  0  0  0  0
    0.0303    3.0924    0.7320 N   0  0  0  0  0  0
   -0.9185    2.5222    1.5158 C   0  0  0  0  0  0
    1.2049   -0.1206    2.3006 N   0  0  0  0  0  0
    2.0532   -0.8290    1.4505 O   0  0  0  0  0  0
    1.5416   -2.6860   -1.3534 C   0  0  0  0  0  0
    1.3405   -3.8631   -0.6452 C   0  0  0  0  0  0
    0.6447   -4.9056   -1.2695 C   0  0  0  0  0  0
    0.1594   -4.7620   -2.5810 C   0  0  0  0  0  0
   -0.6696   -6.0770   -3.3236 Cl  0  0  0  0  0  0
    0.3523   -3.5787   -3.2891 C   0  0  0  0  0  0
    1.0461   -2.5682   -2.6478 C   0  0  0  0  0  0
    3.3167   -0.5245   -2.5626 H   0  0  0  0  0  0
    1.9415    0.4729   -2.0064 H   0  0  0  0  0  0
    3.2584   -1.6678   -0.5740 H   0  0  0  0  0  0
   -1.7482   -0.4416    3.0423 H   0  0  0  0  0  0
   -3.6703    0.9137    3.8147 H   0  0  0  0  0  0
   -3.8533    3.2791    3.1420 H   0  0  0  0  0  0
   -2.9468    5.2417    1.9387 H   0  0  0  0  0  0
   -1.1961    6.2334    0.4892 H   0  0  0  0  0  0
    0.6939    4.7771   -0.2532 H   0  0  0  0  0  0
    1.7041   -3.9807    0.3727 H   0  0  0  0  0  0
    0.4782   -5.8348   -0.7285 H   0  0  0  0  0  0
   -0.0118   -3.4486   -4.3021 H   0  0  0  0  0  0
  1  2  2  0  0  0
  2  3  1  0  0  0
  2 26  1  0  0  0
  3  4  1  0  0  0
  3 27  1  0  0  0
  3 28  1  0  0  0
  4  5  1  0  0  0
  4 20  1  0  0  0
  4 29  1  0  0  0
  5  6  2  0  0  0
  5 19  1  0  0  0
  6  7  1  0  0  0
  7  8  1  0  0  0
  7 18  2  0  0  0
  8  9  2  0  0  0
  8 17  1  0  0  0
  9 10  1  0  0  0
  9 30  1  0  0  0
 10 11  2  0  0  0
 10 31  1  0  0  0
 11 12  1  0  0  0
 11 32  1  0  0  0
 12 13  2  0  0  0
 12 17  1  0  0  0
 13 14  1  0  0  0
 13 33  1  0  0  0
 14 15  2  0  0  0
 14 34  1  0  0  0
 15 16  1  0  0  0
 15 35  1  0  0  0
 16 17  2  0  0  0
 18 19  1  0  0  0
 20 21  2  0  0  0
 20 26  1  0  0  0
 21 22  1  0  0  0
 21 36  1  0  0  0
 22 23  2  0  0  0
 22 37  1  0  0  0
 23 24  1  0  0  0
 23 25  1  0  0  0
 25 26  2  0  0  0
 25 38  1  0  0  0
M  END
> <energy>
84.2605

> <i_ionizer_Ion_state_n>
0

> <i_ionizer_Tot_Q>
0

> <s_ionizer_Ion_centers>


> <s_ionizer_Ion_types>


> <s_ionizer_Ion_ctrs_in>


> <r_ionizer_Ionization_penalty>
0.00741239

> <r_ionizer_Ionization_penalty_charging>
0

> <r_ionizer_Ionization_penalty_neutral>
0.00741239

$$$$
ZINC001211864256
                    3D
 Schrodinger Suite 2019-4.
 46 49  0  0  1  0            999 V2000
    5.6788    2.8473    0.3618 C   0  0  0  0  0  0
    5.2757    1.7670    1.3295 C   0  0  0  0  0  0
    5.7055    1.7461    2.4823 O   0  0  0  0  0  0
    4.3392    0.7019    0.8764 C   0  0  0  0  0  0
    4.0702    0.4828   -0.4758 C   0  0  0  0  0  0
    3.1261   -0.4804   -0.8527 C   0  0  0  0  0  0
    2.4641   -1.2543    0.1087 C   0  0  0  0  0  0
    1.3954   -2.1629   -0.2860 C   0  0  0  0  0  0
    0.9926   -3.2217    0.4337 N   0  0  0  0  0  0
   -0.2238   -3.5717   -0.1510 O   0  0  0  0  0  0
   -0.4401   -2.6746   -1.1556 C   0  0  0  0  0  0
   -1.8405   -2.5267   -1.6331 C   0  0  0  0  0  0
   -2.5080   -1.3860   -0.8773 C   0  0  0  0  0  0
   -3.2189   -1.6427    0.3051 C   0  0  0  0  0  0
   -3.5166   -3.0306    0.7942 C   0  0  0  0  0  0
   -3.6888   -0.6619    1.1107 N   0  0  0  0  0  0
   -3.4508    0.6151    0.8040 C   0  0  0  0  0  0
   -3.9061    1.5849    1.6894 C   0  0  0  0  0  0
   -3.6983    2.9448    1.4722 C   0  0  0  0  0  0
   -3.0180    3.3553    0.3393 C   0  0  0  0  0  0
   -2.5504    2.3981   -0.5665 C   0  0  0  0  0  0
   -2.7591    1.0104   -0.3580 C   0  0  0  0  0  0
   -2.3009   -0.0246   -1.2319 C   0  0  0  0  0  0
   -1.5284    0.3614   -2.4737 C   0  0  0  0  0  0
    0.5835   -1.8768   -1.3634 N   0  0  0  0  0  0
    2.7693   -1.0554    1.4618 C   0  0  0  0  0  0
    3.6940   -0.0766    1.8444 C   0  0  0  0  0  0
    5.9924    3.7322    0.9232 H   0  0  0  0  0  0
    4.8484    3.1504   -0.2810 H   0  0  0  0  0  0
    6.5191    2.4987   -0.2435 H   0  0  0  0  0  0
    4.5692    1.0470   -1.2586 H   0  0  0  0  0  0
    2.8946   -0.6025   -1.9096 H   0  0  0  0  0  0
   -2.3974   -3.4631   -1.5071 H   0  0  0  0  0  0
   -1.8685   -2.3516   -2.7116 H   0  0  0  0  0  0
   -4.0979   -2.9938    1.7251 H   0  0  0  0  0  0
   -4.1094   -3.5758    0.0529 H   0  0  0  0  0  0
   -2.5922   -3.5739    1.0115 H   0  0  0  0  0  0
   -4.4379    1.2637    2.5829 H   0  0  0  0  0  0
   -4.0747    3.6730    2.1834 H   0  0  0  0  0  0
   -2.8386    4.4107    0.1593 H   0  0  0  0  0  0
   -2.0138    2.7537   -1.4432 H   0  0  0  0  0  0
   -0.5295    0.7150   -2.2014 H   0  0  0  0  0  0
   -2.0544    1.1401   -3.0315 H   0  0  0  0  0  0
   -1.4049   -0.4575   -3.1831 H   0  0  0  0  0  0
    2.2619   -1.6205    2.2421 H   0  0  0  0  0  0
    3.8880    0.0862    2.9020 H   0  0  0  0  0  0
  1  2  1  0  0  0
  1 28  1  0  0  0
  1 29  1  0  0  0
  1 30  1  0  0  0
  2  3  2  0  0  0
  2  4  1  0  0  0
  4  5  2  0  0  0
  4 27  1  0  0  0
  5  6  1  0  0  0
  5 31  1  0  0  0
  6  7  2  0  0  0
  6 32  1  0  0  0
  7  8  1  0  0  0
  7 26  1  0  0  0
  8  9  2  0  0  0
  8 25  1  0  0  0
  9 10  1  0  0  0
 10 11  1  0  0  0
 11 12  1  0  0  0
 11 25  2  0  0  0
 12 13  1  0  0  0
 12 33  1  0  0  0
 12 34  1  0  0  0
 13 14  1  0  0  0
 13 23  2  0  0  0
 14 15  1  0  0  0
 14 16  2  0  0  0
 15 35  1  0  0  0
 15 36  1  0  0  0
 15 37  1  0  0  0
 16 17  1  0  0  0
 17 18  1  0  0  0
 17 22  2  0  0  0
 18 19  2  0  0  0
 18 38  1  0  0  0
 19 20  1  0  0  0
 19 39  1  0  0  0
 20 21  2  0  0  0
 20 40  1  0  0  0
 21 22  1  0  0  0
 21 41  1  0  0  0
 22 23  1  0  0  0
 23 24  1  0  0  0
 24 42  1  0  0  0
 24 43  1  0  0  0
 24 44  1  0  0  0
 26 27  2  0  0  0
 26 45  1  0  0  0
 27 46  1  0  0  0
M  END
> <energy>
113.756

> <i_ionizer_Ion_state_n>
0

> <i_ionizer_Tot_Q>
0

> <s_ionizer_Ion_centers>


> <s_ionizer_Ion_types>


> <s_ionizer_Ion_ctrs_in>


> <r_ionizer_Ionization_penalty>
0.00741239

> <r_ionizer_Ionization_penalty_charging>
0

> <r_ionizer_Ionization_penalty_neutral>
0.00741239

$$$$
ZINC001211865125
                    3D
 Schrodinger Suite 2019-4.
 42 43  0  0  1  0            999 V2000
    3.1012    2.9944   -0.9433 O   0  0  0  0  0  0
    2.4056    2.2148    0.0559 S   0  0  0  0  0  0
    2.5954    2.4269    1.4723 O   0  0  0  0  0  0
    0.7716    2.3482   -0.2882 N   0  0  0  0  0  0
   -0.2332    2.0413    0.7364 C   0  0  0  0  0  0
   -1.4172    1.2944    0.0758 C   0  0  0  0  0  0
   -2.7013    1.4975    0.8993 C   0  0  0  0  0  0
   -4.0051    1.0695    0.2098 C   0  0  0  0  0  0
   -3.9039    0.0320   -0.9045 C   0  0  0  0  0  0
   -3.3246   -1.3106   -0.4780 C   0  0  0  0  0  0
   -2.0270   -1.2477    0.3172 C   0  0  0  0  0  0
   -1.0350   -0.1917   -0.1660 C   0  0  0  0  0  0
    2.7225    0.5089   -0.3192 C   0  0  0  0  0  0
    2.4748    0.0469   -1.6136 C   0  0  0  0  0  0
    2.7170   -1.2900   -1.9231 C   0  0  0  0  0  0
    3.2185   -2.1611   -0.9477 C   0  0  0  0  0  0
    3.5018   -3.7950   -1.4220 Cl  0  0  0  0  0  0
    3.4769   -1.7072    0.3540 C   0  0  0  0  0  0
    4.0095   -2.6309    1.4179 C   0  0  0  0  0  0
    3.1739   -3.6713    1.6824 F   0  0  0  0  0  0
    5.2166   -3.1735    1.1040 F   0  0  0  0  0  0
    4.1961   -2.0060    2.6162 F   0  0  0  0  0  0
    3.2176   -0.3548    0.6629 C   0  0  0  0  0  0
    0.5681    3.1036   -0.9445 H   0  0  0  0  0  0
   -0.5579    2.9974    1.1609 H   0  0  0  0  0  0
    0.1837    1.4408    1.5524 H   0  0  0  0  0  0
   -1.5896    1.7596   -0.9051 H   0  0  0  0  0  0
   -2.8078    2.5608    1.1544 H   0  0  0  0  0  0
   -2.6098    0.9893    1.8654 H   0  0  0  0  0  0
   -4.4698    1.9653   -0.2223 H   0  0  0  0  0  0
   -4.7034    0.7122    0.9751 H   0  0  0  0  0  0
   -4.9092   -0.1426   -1.3102 H   0  0  0  0  0  0
   -3.3228    0.4359   -1.7417 H   0  0  0  0  0  0
   -3.1540   -1.9122   -1.3801 H   0  0  0  0  0  0
   -4.0720   -1.8560    0.1116 H   0  0  0  0  0  0
   -1.5477   -2.2330    0.2612 H   0  0  0  0  0  0
   -2.2479   -1.1030    1.3793 H   0  0  0  0  0  0
   -0.8503   -0.3347   -1.2385 H   0  0  0  0  0  0
   -0.0812   -0.4131    0.3252 H   0  0  0  0  0  0
    2.0920    0.7206   -2.3773 H   0  0  0  0  0  0
    2.5189   -1.6475   -2.9326 H   0  0  0  0  0  0
    3.4085    0.0217    1.6682 H   0  0  0  0  0  0
  1  2  2  0  0  0
  2  3  2  0  0  0
  2  4  1  0  0  0
  2 13  1  0  0  0
  4  5  1  0  0  0
  4 24  1  0  0  0
  5  6  1  0  0  0
  5 25  1  0  0  0
  5 26  1  0  0  0
  6  7  1  0  0  0
  6 12  1  0  0  0
  6 27  1  0  0  0
  7  8  1  0  0  0
  7 28  1  0  0  0
  7 29  1  0  0  0
  8  9  1  0  0  0
  8 30  1  0  0  0
  8 31  1  0  0  0
  9 10  1  0  0  0
  9 32  1  0  0  0
  9 33  1  0  0  0
 10 11  1  0  0  0
 10 34  1  0  0  0
 10 35  1  0  0  0
 11 12  1  0  0  0
 11 36  1  0  0  0
 11 37  1  0  0  0
 12 38  1  0  0  0
 12 39  1  0  0  0
 13 14  2  0  0  0
 13 23  1  0  0  0
 14 15  1  0  0  0
 14 40  1  0  0  0
 15 16  2  0  0  0
 15 41  1  0  0  0
 16 17  1  0  0  0
 16 18  1  0  0  0
 18 19  1  0  0  0
 18 23  2  0  0  0
 19 20  1  0  0  0
 19 21  1  0  0  0
 19 22  1  0  0  0
 23 42  1  0  0  0
M  END
> <energy>
-15.6457

> <i_ionizer_Ion_state_n>
0

> <i_ionizer_Tot_Q>
0

> <s_ionizer_Ion_centers>


> <s_ionizer_Ion_types>


> <s_ionizer_Ion_ctrs_in>


> <r_ionizer_Ionization_penalty>
3.73821e-05

> <r_ionizer_Ionization_penalty_charging>
0

> <r_ionizer_Ionization_penalty_neutral>
3.73821e-05

$$$$
ZINC001211865422
                    3D
 Schrodinger Suite 2019-4.
 42 44  0  0  1  0            999 V2000
    0.3934   -2.5709    2.3278 O   0  0  0  0  0  0
    0.8327   -2.7843    0.9696 S   0  0  0  0  0  0
    1.4314   -4.0323    0.5495 O   0  0  0  0  0  0
   -0.4488   -2.5016   -0.0953 N   0  0  0  0  0  0
   -1.8107   -2.3525    0.4507 C   0  0  0  0  0  0
   -2.3734   -0.9422    0.1667 C   0  0  0  0  0  0
   -2.3953   -0.6700   -1.3505 C   0  0  0  0  0  0
   -3.2573    0.5111   -1.7870 C   0  0  0  0  0  0
   -2.8884    1.8538   -1.1596 C   0  0  0  0  0  0
   -3.3197    1.9586    0.2981 C   0  0  0  0  0  0
   -2.3403    1.3810    1.3143 C   0  0  0  0  0  0
   -1.5636    0.1261    0.9207 C   0  0  0  0  0  0
    2.0355   -1.5283    0.6273 C   0  0  0  0  0  0
    2.7557   -1.6233   -0.9206 S   0  0  0  0  0  0
    3.7398   -0.2436   -0.6460 C   0  0  0  0  0  0
    4.6797    0.3120   -1.5360 C   0  0  0  0  0  0
    5.3940    1.4464   -1.1469 C   0  0  0  0  0  0
    5.1768    2.0225    0.0960 C   0  0  0  0  0  0
    4.2402    1.4696    0.9735 C   0  0  0  0  0  0
    3.5028    0.3105    0.6145 C   0  0  0  0  0  0
    2.5082   -0.4453    1.3343 C   0  0  0  0  0  0
    2.0041    0.0165    2.9102 Cl  0  0  0  0  0  0
   -0.3872   -3.1641   -0.8707 H   0  0  0  0  0  0
   -2.4467   -3.1060   -0.0298 H   0  0  0  0  0  0
   -1.8583   -2.5640    1.5230 H   0  0  0  0  0  0
   -3.4054   -0.9425    0.5422 H   0  0  0  0  0  0
   -2.7749   -1.5599   -1.8697 H   0  0  0  0  0  0
   -1.3737   -0.5158   -1.7210 H   0  0  0  0  0  0
   -3.1680    0.6064   -2.8768 H   0  0  0  0  0  0
   -4.3119    0.2846   -1.5870 H   0  0  0  0  0  0
   -1.8192    2.0643   -1.2751 H   0  0  0  0  0  0
   -3.4212    2.6319   -1.7208 H   0  0  0  0  0  0
   -4.3024    1.4888    0.4302 H   0  0  0  0  0  0
   -3.4652    3.0180    0.5462 H   0  0  0  0  0  0
   -2.8978    1.1769    2.2382 H   0  0  0  0  0  0
   -1.6084    2.1558    1.5793 H   0  0  0  0  0  0
   -1.1649   -0.2953    1.8518 H   0  0  0  0  0  0
   -0.6870    0.4182    0.3286 H   0  0  0  0  0  0
    4.8513   -0.1345   -2.5118 H   0  0  0  0  0  0
    6.1266    1.8800   -1.8241 H   0  0  0  0  0  0
    5.7349    2.9079    0.3917 H   0  0  0  0  0  0
    4.0829    1.9356    1.9444 H   0  0  0  0  0  0
  1  2  2  0  0  0
  2  3  2  0  0  0
  2  4  1  0  0  0
  2 13  1  0  0  0
  4  5  1  0  0  0
  4 23  1  0  0  0
  5  6  1  0  0  0
  5 24  1  0  0  0
  5 25  1  0  0  0
  6  7  1  0  0  0
  6 12  1  0  0  0
  6 26  1  0  0  0
  7  8  1  0  0  0
  7 27  1  0  0  0
  7 28  1  0  0  0
  8  9  1  0  0  0
  8 29  1  0  0  0
  8 30  1  0  0  0
  9 10  1  0  0  0
  9 31  1  0  0  0
  9 32  1  0  0  0
 10 11  1  0  0  0
 10 33  1  0  0  0
 10 34  1  0  0  0
 11 12  1  0  0  0
 11 35  1  0  0  0
 11 36  1  0  0  0
 12 37  1  0  0  0
 12 38  1  0  0  0
 13 14  1  0  0  0
 13 21  2  0  0  0
 14 15  1  0  0  0
 15 16  2  0  0  0
 15 20  1  0  0  0
 16 17  1  0  0  0
 16 39  1  0  0  0
 17 18  2  0  0  0
 17 40  1  0  0  0
 18 19  1  0  0  0
 18 41  1  0  0  0
 19 20  2  0  0  0
 19 42  1  0  0  0
 20 21  1  0  0  0
 21 22  1  0  0  0
M  END
> <energy>
-36.9463

> <i_ionizer_Ion_state_n>
0

> <i_ionizer_Tot_Q>
0

> <s_ionizer_Ion_centers>


> <s_ionizer_Ion_types>


> <s_ionizer_Ion_ctrs_in>


> <r_ionizer_Ionization_penalty>
3.73821e-05

> <r_ionizer_Ionization_penalty_charging>
0

> <r_ionizer_Ionization_penalty_neutral>
3.73821e-05

$$$$
ZINC001211865627
                    3D
 Schrodinger Suite 2019-4.
 43 45  0  0  1  0            999 V2000
    3.4600   -2.1231    0.6574 O   0  0  0  0  0  0
    2.4884   -1.3861    0.5056 C   0  0  0  0  0  0
    1.2675   -1.9945   -0.0496 C   0  0  0  0  0  0
    0.0728   -2.0674    0.6720 C   0  0  0  0  0  0
   -1.0900   -2.5060    0.0206 C   0  0  0  0  0  0
   -2.3663   -2.2534    0.5962 N   0  0  0  0  0  0
   -2.9725   -0.9851    0.3321 C   0  0  0  0  0  0
   -3.3217   -0.6251   -0.9704 C   0  0  0  0  0  0
   -3.7766    0.6570   -1.2127 C   0  0  0  0  0  0
   -3.8973    1.5940   -0.2567 N   0  0  0  0  0  0
   -3.5519    1.2496    1.0175 C   0  0  0  0  0  0
   -3.6257    2.3083    2.1071 C   0  0  0  0  0  0
   -4.4822    1.9663    3.1124 F   0  0  0  0  0  0
   -2.4153    2.5114    2.7081 F   0  0  0  0  0  0
   -4.0321    3.5314    1.6743 F   0  0  0  0  0  0
   -3.0968   -0.0313    1.3418 C   0  0  0  0  0  0
   -1.0096   -2.9645   -1.3055 C   0  0  0  0  0  0
    0.2013   -2.9552   -1.9951 C   0  0  0  0  0  0
    1.3310   -2.4514   -1.3668 C   0  0  0  0  0  0
    2.4647   -2.3596   -2.0780 F   0  0  0  0  0  0
    2.5225   -0.0110    0.7440 N   0  0  0  0  0  0
    3.8242    0.6492    0.6318 C   0  0  0  0  0  0
    3.9131    1.3783   -0.7173 C   0  0  0  0  0  0
    2.7401    2.3438   -0.9090 C   0  0  0  0  0  0
    1.3876    1.6719   -0.6480 C   0  0  0  0  0  0
    1.3867    0.9092    0.6711 C   0  0  0  0  0  0
    0.0377   -1.7008    1.6937 H   0  0  0  0  0  0
   -2.3263   -2.4033    1.6035 H   0  0  0  0  0  0
   -3.2327   -1.3202   -1.7976 H   0  0  0  0  0  0
   -4.0601    0.9725   -2.2138 H   0  0  0  0  0  0
   -2.8091   -0.2609    2.3632 H   0  0  0  0  0  0
   -1.9119   -3.2936   -1.8180 H   0  0  0  0  0  0
    0.2603   -3.2886   -3.0281 H   0  0  0  0  0  0
    3.9161    1.3673    1.4565 H   0  0  0  0  0  0
    4.6472   -0.0666    0.7163 H   0  0  0  0  0  0
    3.9085    0.6413   -1.5330 H   0  0  0  0  0  0
    4.8599    1.9282   -0.7810 H   0  0  0  0  0  0
    2.7551    2.7542   -1.9254 H   0  0  0  0  0  0
    2.8610    3.1896   -0.2225 H   0  0  0  0  0  0
    1.1637    0.9819   -1.4711 H   0  0  0  0  0  0
    0.5983    2.4351   -0.6402 H   0  0  0  0  0  0
    1.4781    1.6084    1.5132 H   0  0  0  0  0  0
    0.4325    0.3986    0.8013 H   0  0  0  0  0  0
  1  2  2  0  0  0
  2  3  1  0  0  0
  2 21  1  0  0  0
  3  4  2  0  0  0
  3 19  1  0  0  0
  4  5  1  0  0  0
  4 27  1  0  0  0
  5  6  1  0  0  0
  5 17  2  0  0  0
  6  7  1  0  0  0
  6 28  1  0  0  0
  7  8  2  0  0  0
  7 16  1  0  0  0
  8  9  1  0  0  0
  8 29  1  0  0  0
  9 10  2  0  0  0
  9 30  1  0  0  0
 10 11  1  0  0  0
 11 12  1  0  0  0
 11 16  2  0  0  0
 12 13  1  0  0  0
 12 14  1  0  0  0
 12 15  1  0  0  0
 16 31  1  0  0  0
 17 18  1  0  0  0
 17 32  1  0  0  0
 18 19  2  0  0  0
 18 33  1  0  0  0
 19 20  1  0  0  0
 21 22  1  0  0  0
 21 26  1  0  0  0
 22 23  1  0  0  0
 22 34  1  0  0  0
 22 35  1  0  0  0
 23 24  1  0  0  0
 23 36  1  0  0  0
 23 37  1  0  0  0
 24 25  1  0  0  0
 24 38  1  0  0  0
 24 39  1  0  0  0
 25 26  1  0  0  0
 25 40  1  0  0  0
 25 41  1  0  0  0
 26 42  1  0  0  0
 26 43  1  0  0  0
M  END
> <energy>
87.1601

> <i_ionizer_Ion_state_n>
0

> <i_ionizer_Tot_Q>
0

> <s_ionizer_Ion_centers>


> <s_ionizer_Ion_types>


> <s_ionizer_Ion_ctrs_in>


> <r_ionizer_Ionization_penalty>
0.00741239

> <r_ionizer_Ionization_penalty_charging>
0

> <r_ionizer_Ionization_penalty_neutral>
0.00741239

$$$$
ZINC001211865628
                    3D
 Schrodinger Suite 2019-4.
 45 47  0  0  1  0            999 V2000
    3.8768    2.8885    1.2948 C   0  0  0  0  0  0
    3.9330    1.6420    0.5497 N   0  0  0  0  0  0
    5.0875    0.7949    0.7871 C   0  0  0  0  0  0
    2.7730    1.2070   -0.0849 C   0  0  0  0  0  0
    1.7328    1.8631   -0.1385 O   0  0  0  0  0  0
    2.7167   -0.1545   -0.6366 C   0  0  0  0  0  0
    1.9600   -1.0988    0.0549 C   0  0  0  0  0  0
    1.7284   -2.3687   -0.4966 C   0  0  0  0  0  0
    0.7772   -3.2532    0.1097 N   0  0  0  0  0  0
   -0.5485   -2.7129    0.2561 C   0  0  0  0  0  0
   -1.3031   -2.4776   -0.8983 C   0  0  0  0  0  0
   -2.3604   -1.5722   -0.8656 C   0  0  0  0  0  0
   -2.6730   -0.8838    0.3130 C   0  0  0  0  0  0
   -3.5496    0.2832    0.2477 C   0  0  0  0  0  0
   -2.9781    1.5669    0.2956 C   0  0  0  0  0  0
   -3.7581    2.7131    0.1376 C   0  0  0  0  0  0
   -5.1316    2.5916   -0.0479 C   0  0  0  0  0  0
   -5.7054    1.3223   -0.0782 C   0  0  0  0  0  0
   -7.0520    1.1676   -0.2430 O   0  0  0  0  0  0
   -4.9289    0.1707    0.0509 C   0  0  0  0  0  0
   -2.0099   -1.2384    1.4966 C   0  0  0  0  0  0
   -0.9554   -2.1538    1.4754 C   0  0  0  0  0  0
    2.3199   -2.7005   -1.7205 C   0  0  0  0  0  0
    3.0976   -1.7595   -2.4028 C   0  0  0  0  0  0
    3.2702   -0.4809   -1.8682 C   0  0  0  0  0  0
    3.9748    0.4204   -2.5639 F   0  0  0  0  0  0
    4.8061    3.4454    1.1467 H   0  0  0  0  0  0
    3.0383    3.5161    0.9812 H   0  0  0  0  0  0
    3.7611    2.6596    2.3587 H   0  0  0  0  0  0
    4.9404    0.2542    1.7266 H   0  0  0  0  0  0
    5.2328    0.0713   -0.0167 H   0  0  0  0  0  0
    5.9853    1.4142    0.8561 H   0  0  0  0  0  0
    1.4694   -0.8038    0.9783 H   0  0  0  0  0  0
    1.1043   -3.4533    1.0574 H   0  0  0  0  0  0
   -0.9938   -2.9062   -1.8503 H   0  0  0  0  0  0
   -2.8658   -1.3217   -1.7963 H   0  0  0  0  0  0
   -1.9013    1.6723    0.4217 H   0  0  0  0  0  0
   -3.2797    3.6904    0.1400 H   0  0  0  0  0  0
   -5.7253    3.4909   -0.1874 H   0  0  0  0  0  0
   -7.4723    2.0320   -0.1076 H   0  0  0  0  0  0
   -5.4023   -0.8062   -0.0109 H   0  0  0  0  0  0
   -2.2509   -0.7334    2.4302 H   0  0  0  0  0  0
   -0.3911   -2.3263    2.3874 H   0  0  0  0  0  0
    2.1263   -3.6727   -2.1669 H   0  0  0  0  0  0
    3.5244   -1.9992   -3.3721 H   0  0  0  0  0  0
  1  2  1  0  0  0
  1 27  1  0  0  0
  1 28  1  0  0  0
  1 29  1  0  0  0
  2  3  1  0  0  0
  2  4  1  0  0  0
  3 30  1  0  0  0
  3 31  1  0  0  0
  3 32  1  0  0  0
  4  5  2  0  0  0
  4  6  1  0  0  0
  6  7  2  0  0  0
  6 25  1  0  0  0
  7  8  1  0  0  0
  7 33  1  0  0  0
  8  9  1  0  0  0
  8 23  2  0  0  0
  9 10  1  0  0  0
  9 34  1  0  0  0
 10 11  2  0  0  0
 10 22  1  0  0  0
 11 12  1  0  0  0
 11 35  1  0  0  0
 12 13  2  0  0  0
 12 36  1  0  0  0
 13 14  1  0  0  0
 13 21  1  0  0  0
 14 15  2  0  0  0
 14 20  1  0  0  0
 15 16  1  0  0  0
 15 37  1  0  0  0
 16 17  2  0  0  0
 16 38  1  0  0  0
 17 18  1  0  0  0
 17 39  1  0  0  0
 18 19  1  0  0  0
 18 20  2  0  0  0
 19 40  1  0  0  0
 20 41  1  0  0  0
 21 22  2  0  0  0
 21 42  1  0  0  0
 22 43  1  0  0  0
 23 24  1  0  0  0
 23 44  1  0  0  0
 24 25  2  0  0  0
 24 45  1  0  0  0
 25 26  1  0  0  0
M  END
> <energy>
51.2337

> <i_ionizer_Ion_state_n>
0

> <i_ionizer_Tot_Q>
0

> <s_ionizer_Ion_centers>


> <s_ionizer_Ion_types>


> <s_ionizer_Ion_ctrs_in>


> <r_ionizer_Ionization_penalty>
0.00148639

> <r_ionizer_Ionization_penalty_charging>
0

> <r_ionizer_Ionization_penalty_neutral>
0.00148639

$$$$
ZINC001211866011
                    3D
 Schrodinger Suite 2019-4.
 49 51  0  0  1  0            999 V2000
   -2.6784    3.7708   -1.4789 C   0  0  0  0  0  0
   -2.7876    2.3116   -1.1932 C   0  0  0  0  0  0
   -3.6023    1.6799   -0.2791 C   0  0  0  0  0  0
   -3.4413    0.2543   -0.2765 C   0  0  0  0  0  0
   -4.2032   -0.6679    0.6168 C   0  0  0  0  0  0
   -2.4905   -0.1437   -1.2089 C   0  0  0  0  0  0
   -1.8292   -1.7415   -1.6729 S   0  0  0  0  0  0
   -2.5839   -2.7095   -0.9079 O   0  0  0  0  0  0
   -1.8305   -1.7532   -3.1195 O   0  0  0  0  0  0
   -0.2286   -1.8114   -1.1799 N   0  0  0  0  0  0
    0.1206   -1.9775    0.2331 C   0  0  0  0  0  0
    0.3243   -0.6385    0.9697 C   0  0  1  0  0  0
   -0.0079   -0.8701    2.4673 C   0  0  0  0  0  0
    0.6703    0.1384    3.3827 C   0  0  0  0  0  0
    2.1937    0.0337    3.2925 C   0  0  0  0  0  0
    2.6901   -0.4120    1.9115 C   0  0  0  0  0  0
    1.7239    0.0383    0.8027 C   0  0  1  0  0  0
    2.3052   -0.0200   -0.5981 C   0  0  0  0  0  0
    3.1878   -1.0290   -1.0094 C   0  0  0  0  0  0
    3.6750   -1.0607   -2.3181 C   0  0  0  0  0  0
    3.2862   -0.0881   -3.2353 C   0  0  0  0  0  0
    2.4172    0.9252   -2.8425 C   0  0  0  0  0  0
    1.9334    0.9605   -1.5337 C   0  0  0  0  0  0
   -1.8238    1.1935   -2.0477 S   0  0  0  0  0  0
   -3.5893    4.2940   -1.1690 H   0  0  0  0  0  0
   -2.5338    3.9657   -2.5466 H   0  0  0  0  0  0
   -1.8362    4.2041   -0.9297 H   0  0  0  0  0  0
   -4.2941    2.2170    0.3618 H   0  0  0  0  0  0
   -3.5188   -1.2404    1.2497 H   0  0  0  0  0  0
   -4.8805   -0.1124    1.2739 H   0  0  0  0  0  0
   -4.8075   -1.3620    0.0251 H   0  0  0  0  0  0
    0.4266   -1.3265   -1.7937 H   0  0  0  0  0  0
   -0.6632   -2.5688    0.7211 H   0  0  0  0  0  0
    1.0263   -2.5909    0.2952 H   0  0  0  0  0  0
   -0.4097    0.0815    0.5920 H   0  0  0  0  0  0
    0.2976   -1.8787    2.7769 H   0  0  0  0  0  0
   -1.0949   -0.8234    2.6046 H   0  0  0  0  0  0
    0.3528   -0.0150    4.4200 H   0  0  0  0  0  0
    0.3501    1.1509    3.1056 H   0  0  0  0  0  0
    2.6257    1.0099    3.5443 H   0  0  0  0  0  0
    2.5661   -0.6716    4.0453 H   0  0  0  0  0  0
    2.7930   -1.5046    1.9026 H   0  0  0  0  0  0
    3.6963   -0.0050    1.7506 H   0  0  0  0  0  0
    1.5688    1.1123    0.9931 H   0  0  0  0  0  0
    3.5045   -1.8091   -0.3219 H   0  0  0  0  0  0
    4.3611   -1.8477   -2.6220 H   0  0  0  0  0  0
    3.6636   -0.1170   -4.2548 H   0  0  0  0  0  0
    2.1163    1.6903   -3.5533 H   0  0  0  0  0  0
    1.2589    1.7644   -1.2458 H   0  0  0  0  0  0
  1  2  1  0  0  0
  1 25  1  0  0  0
  1 26  1  0  0  0
  1 27  1  0  0  0
  2  3  2  0  0  0
  2 24  1  0  0  0
  3  4  1  0  0  0
  3 28  1  0  0  0
  4  5  1  0  0  0
  4  6  2  0  0  0
  5 29  1  0  0  0
  5 30  1  0  0  0
  5 31  1  0  0  0
  6  7  1  0  0  0
  6 24  1  0  0  0
  7  8  2  0  0  0
  7  9  2  0  0  0
  7 10  1  0  0  0
 10 11  1  0  0  0
 10 32  1  0  0  0
 11 12  1  0  0  0
 11 33  1  0  0  0
 11 34  1  0  0  0
 12 13  1  0  0  0
 12 17  1  0  0  0
 12 35  1  0  0  0
 13 14  1  0  0  0
 13 36  1  0  0  0
 13 37  1  0  0  0
 14 15  1  0  0  0
 14 38  1  0  0  0
 14 39  1  0  0  0
 15 16  1  0  0  0
 15 40  1  0  0  0
 15 41  1  0  0  0
 16 17  1  0  0  0
 16 42  1  0  0  0
 16 43  1  0  0  0
 17 18  1  0  0  0
 17 44  1  0  0  0
 18 19  2  0  0  0
 18 23  1  0  0  0
 19 20  1  0  0  0
 19 45  1  0  0  0
 20 21  2  0  0  0
 20 46  1  0  0  0
 21 22  1  0  0  0
 21 47  1  0  0  0
 22 23  2  0  0  0
 22 48  1  0  0  0
 23 49  1  0  0  0
M  END
> <energy>
-3.39514

> <i_ionizer_Ion_state_n>
0

> <i_ionizer_Tot_Q>
0

> <s_ionizer_Ion_centers>


> <s_ionizer_Ion_types>


> <s_ionizer_Ion_ctrs_in>


> <r_ionizer_Ionization_penalty>
3.73821e-05

> <r_ionizer_Ionization_penalty_charging>
0

> <r_ionizer_Ionization_penalty_neutral>
3.73821e-05

$$$$
ZINC001211866012
                    3D
 Schrodinger Suite 2019-4.
 49 51  0  0  1  0            999 V2000
   -6.2720    1.2836   -0.8978 C   0  0  0  0  0  0
   -5.0560    0.5996   -0.3751 C   0  0  0  0  0  0
   -4.5423   -0.6262   -0.7369 C   0  0  0  0  0  0
   -3.3692   -0.9813    0.0079 C   0  0  0  0  0  0
   -2.6496   -2.2738   -0.1602 C   0  0  0  0  0  0
   -3.0102    0.0283    0.8939 C   0  0  0  0  0  0
   -1.6790    0.1935    2.0744 S   0  0  0  0  0  0
   -1.3598    1.5999    2.1569 O   0  0  0  0  0  0
   -2.0963   -0.5868    3.2195 O   0  0  0  0  0  0
   -0.3357   -0.6259    1.4282 N   0  0  0  0  0  0
    0.9786   -0.1646    1.9369 C   0  0  0  0  0  0
    2.1143   -0.6440    1.0109 C   0  0  1  0  0  0
    2.2646   -2.1851    1.0213 C   0  0  0  0  0  0
    1.8193   -2.8405   -0.2816 C   0  0  0  0  0  0
    2.5900   -2.3024   -1.4863 C   0  0  0  0  0  0
    2.9444   -0.8182   -1.3750 C   0  0  0  0  0  0
    1.9877   -0.0737   -0.4302 C   0  0  2  0  0  0
    2.1963    1.4314   -0.4848 C   0  0  0  0  0  0
    3.4403    2.0233   -0.2225 C   0  0  0  0  0  0
    3.5898    3.4110   -0.2664 C   0  0  0  0  0  0
    2.5038    4.2243   -0.5810 C   0  0  0  0  0  0
    1.2622    3.6503   -0.8396 C   0  0  0  0  0  0
    1.1076    2.2646   -0.7851 C   0  0  0  0  0  0
   -4.1188    1.3331    0.8476 S   0  0  0  0  0  0
   -6.7172    0.7126   -1.7194 H   0  0  0  0  0  0
   -7.0269    1.3812   -0.1109 H   0  0  0  0  0  0
   -6.0301    2.2810   -1.2777 H   0  0  0  0  0  0
   -5.0011   -1.2567   -1.4911 H   0  0  0  0  0  0
   -1.7055   -2.1223   -0.6920 H   0  0  0  0  0  0
   -3.2489   -2.9890   -0.7324 H   0  0  0  0  0  0
   -2.4406   -2.7271    0.8136 H   0  0  0  0  0  0
   -0.4679   -1.6201    1.6178 H   0  0  0  0  0  0
    1.1288   -0.5685    2.9447 H   0  0  0  0  0  0
    1.0128    0.9254    2.0045 H   0  0  0  0  0  0
    3.0390   -0.2547    1.4595 H   0  0  0  0  0  0
    3.3228   -2.4303    1.1845 H   0  0  0  0  0  0
    1.7224   -2.6283    1.8635 H   0  0  0  0  0  0
    0.7451   -2.6698   -0.4286 H   0  0  0  0  0  0
    1.9500   -3.9269   -0.2194 H   0  0  0  0  0  0
    3.5161   -2.8763   -1.6195 H   0  0  0  0  0  0
    1.9937   -2.4734   -2.3906 H   0  0  0  0  0  0
    3.9761   -0.7289   -1.0108 H   0  0  0  0  0  0
    2.9353   -0.3674   -2.3753 H   0  0  0  0  0  0
    0.9730   -0.2741   -0.8025 H   0  0  0  0  0  0
    4.3044    1.4116    0.0239 H   0  0  0  0  0  0
    4.5561    3.8593   -0.0539 H   0  0  0  0  0  0
    2.6216    5.3036   -0.6194 H   0  0  0  0  0  0
    0.4088    4.2792   -1.0745 H   0  0  0  0  0  0
    0.1222    1.8400   -0.9689 H   0  0  0  0  0  0
  1  2  1  0  0  0
  1 25  1  0  0  0
  1 26  1  0  0  0
  1 27  1  0  0  0
  2  3  2  0  0  0
  2 24  1  0  0  0
  3  4  1  0  0  0
  3 28  1  0  0  0
  4  5  1  0  0  0
  4  6  2  0  0  0
  5 29  1  0  0  0
  5 30  1  0  0  0
  5 31  1  0  0  0
  6  7  1  0  0  0
  6 24  1  0  0  0
  7  8  2  0  0  0
  7  9  2  0  0  0
  7 10  1  0  0  0
 10 11  1  0  0  0
 10 32  1  0  0  0
 11 12  1  0  0  0
 11 33  1  0  0  0
 11 34  1  0  0  0
 12 13  1  0  0  0
 12 17  1  0  0  0
 12 35  1  0  0  0
 13 14  1  0  0  0
 13 36  1  0  0  0
 13 37  1  0  0  0
 14 15  1  0  0  0
 14 38  1  0  0  0
 14 39  1  0  0  0
 15 16  1  0  0  0
 15 40  1  0  0  0
 15 41  1  0  0  0
 16 17  1  0  0  0
 16 42  1  0  0  0
 16 43  1  0  0  0
 17 18  1  0  0  0
 17 44  1  0  0  0
 18 19  2  0  0  0
 18 23  1  0  0  0
 19 20  1  0  0  0
 19 45  1  0  0  0
 20 21  2  0  0  0
 20 46  1  0  0  0
 21 22  1  0  0  0
 21 47  1  0  0  0
 22 23  2  0  0  0
 22 48  1  0  0  0
 23 49  1  0  0  0
M  END
> <energy>
-3.17586

> <i_ionizer_Ion_state_n>
0

> <i_ionizer_Tot_Q>
0

> <s_ionizer_Ion_centers>


> <s_ionizer_Ion_types>


> <s_ionizer_Ion_ctrs_in>


> <r_ionizer_Ionization_penalty>
3.73821e-05

> <r_ionizer_Ionization_penalty_charging>
0

> <r_ionizer_Ionization_penalty_neutral>
3.73821e-05

$$$$
ZINC001211866013
                    3D
 Schrodinger Suite 2019-4.
 49 51  0  0  1  0            999 V2000
   -6.5268    0.3313   -2.4484 C   0  0  0  0  0  0
   -5.2510    0.2823   -1.6796 C   0  0  0  0  0  0
   -4.2796    1.2534   -1.5656 C   0  0  0  0  0  0
   -3.1625    0.8378   -0.7657 C   0  0  0  0  0  0
   -1.9631    1.6896   -0.5148 C   0  0  0  0  0  0
   -3.3453   -0.4552   -0.2911 C   0  0  0  0  0  0
   -2.3500   -1.5686    0.6824 S   0  0  0  0  0  0
   -2.0155   -2.6600   -0.2034 O   0  0  0  0  0  0
   -3.0626   -1.7525    1.9274 O   0  0  0  0  0  0
   -0.9283   -0.7536    1.0900 N   0  0  0  0  0  0
    0.2843   -1.5856    1.2643 C   0  0  0  0  0  0
    1.2903   -1.2183    0.1541 C   0  0  2  0  0  0
    1.5547   -2.4150   -0.7707 C   0  0  0  0  0  0
    2.4138   -2.0259   -1.9762 C   0  0  0  0  0  0
    3.3020   -0.8078   -1.7303 C   0  0  0  0  0  0
    3.7908   -0.7423   -0.2875 C   0  0  0  0  0  0
    2.6367   -0.7126    0.7444 C   0  0  1  0  0  0
    2.4913    0.6626    1.3852 C   0  0  0  0  0  0
    2.1029    1.7855    0.6403 C   0  0  0  0  0  0
    1.9688    3.0351    1.2486 C   0  0  0  0  0  0
    2.2206    3.1798    2.6102 C   0  0  0  0  0  0
    2.6098    2.0750    3.3640 C   0  0  0  0  0  0
    2.7447    0.8250    2.7563 C   0  0  0  0  0  0
   -4.8472   -1.1133   -0.7871 S   0  0  0  0  0  0
   -7.3722    0.5166   -1.7774 H   0  0  0  0  0  0
   -6.7040   -0.6084   -2.9831 H   0  0  0  0  0  0
   -6.4991    1.1334   -3.1941 H   0  0  0  0  0  0
   -4.3540    2.2200   -2.0513 H   0  0  0  0  0  0
   -1.8262    1.8579    0.5577 H   0  0  0  0  0  0
   -2.0654    2.6680   -0.9945 H   0  0  0  0  0  0
   -1.0648    1.2164   -0.9217 H   0  0  0  0  0  0
   -1.1066   -0.1662    1.9070 H   0  0  0  0  0  0
    0.0432   -2.6543    1.2549 H   0  0  0  0  0  0
    0.6803   -1.3804    2.2656 H   0  0  0  0  0  0
    0.8505   -0.4309   -0.4743 H   0  0  0  0  0  0
    0.6134   -2.8492   -1.1283 H   0  0  0  0  0  0
    2.0643   -3.2066   -0.2053 H   0  0  0  0  0  0
    3.0322   -2.8863   -2.2602 H   0  0  0  0  0  0
    1.7658   -1.8198   -2.8371 H   0  0  0  0  0  0
    4.1562   -0.8357   -2.4158 H   0  0  0  0  0  0
    2.7457    0.1052   -1.9733 H   0  0  0  0  0  0
    4.4693    0.1099   -0.1605 H   0  0  0  0  0  0
    4.3986   -1.6386   -0.0990 H   0  0  0  0  0  0
    2.9339   -1.4136    1.5380 H   0  0  0  0  0  0
    1.9019    1.7000   -0.4246 H   0  0  0  0  0  0
    1.6731    3.8969    0.6561 H   0  0  0  0  0  0
    2.1193    4.1532    3.0823 H   0  0  0  0  0  0
    2.8135    2.1883    4.4257 H   0  0  0  0  0  0
    3.0521   -0.0225    3.3663 H   0  0  0  0  0  0
  1  2  1  0  0  0
  1 25  1  0  0  0
  1 26  1  0  0  0
  1 27  1  0  0  0
  2  3  2  0  0  0
  2 24  1  0  0  0
  3  4  1  0  0  0
  3 28  1  0  0  0
  4  5  1  0  0  0
  4  6  2  0  0  0
  5 29  1  0  0  0
  5 30  1  0  0  0
  5 31  1  0  0  0
  6  7  1  0  0  0
  6 24  1  0  0  0
  7  8  2  0  0  0
  7  9  2  0  0  0
  7 10  1  0  0  0
 10 11  1  0  0  0
 10 32  1  0  0  0
 11 12  1  0  0  0
 11 33  1  0  0  0
 11 34  1  0  0  0
 12 13  1  0  0  0
 12 17  1  0  0  0
 12 35  1  0  0  0
 13 14  1  0  0  0
 13 36  1  0  0  0
 13 37  1  0  0  0
 14 15  1  0  0  0
 14 38  1  0  0  0
 14 39  1  0  0  0
 15 16  1  0  0  0
 15 40  1  0  0  0
 15 41  1  0  0  0
 16 17  1  0  0  0
 16 42  1  0  0  0
 16 43  1  0  0  0
 17 18  1  0  0  0
 17 44  1  0  0  0
 18 19  2  0  0  0
 18 23  1  0  0  0
 19 20  1  0  0  0
 19 45  1  0  0  0
 20 21  2  0  0  0
 20 46  1  0  0  0
 21 22  1  0  0  0
 21 47  1  0  0  0
 22 23  2  0  0  0
 22 48  1  0  0  0
 23 49  1  0  0  0
M  END
> <energy>
-0.78452

> <i_ionizer_Ion_state_n>
0

> <i_ionizer_Tot_Q>
0

> <s_ionizer_Ion_centers>


> <s_ionizer_Ion_types>


> <s_ionizer_Ion_ctrs_in>


> <r_ionizer_Ionization_penalty>
3.73821e-05

> <r_ionizer_Ionization_penalty_charging>
0

> <r_ionizer_Ionization_penalty_neutral>
3.73821e-05

$$$$
ZINC001211866014
                    3D
 Schrodinger Suite 2019-4.
 49 51  0  0  1  0            999 V2000
   -1.0209    4.2461    2.3744 C   0  0  0  0  0  0
   -1.6620    3.2874    1.4323 C   0  0  0  0  0  0
   -2.8052    2.5386    1.6123 C   0  0  0  0  0  0
   -3.1012    1.6913    0.4926 C   0  0  0  0  0  0
   -4.2597    0.7496    0.4344 C   0  0  0  0  0  0
   -2.1503    1.8414   -0.5083 C   0  0  0  0  0  0
   -1.8846    1.0263   -2.0793 S   0  0  0  0  0  0
   -2.9382    0.0389   -2.1782 O   0  0  0  0  0  0
   -1.7164    2.0772   -3.0559 O   0  0  0  0  0  0
   -0.4051    0.2489   -1.9169 N   0  0  0  0  0  0
   -0.2675   -1.1566   -2.2946 C   0  0  0  0  0  0
    0.0632   -2.0446   -1.0811 C   0  0  2  0  0  0
   -0.8723   -1.7993    0.1154 C   0  0  0  0  0  0
   -0.5826   -2.7427    1.2752 C   0  0  0  0  0  0
    0.8783   -2.6853    1.6986 C   0  0  0  0  0  0
    1.8137   -2.9901    0.5313 C   0  0  0  0  0  0
    1.5762   -2.1115   -0.7167 C   0  0  2  0  0  0
    2.3760   -0.8173   -0.6283 C   0  0  0  0  0  0
    1.9886    0.2736    0.1572 C   0  0  0  0  0  0
    2.7741    1.4280    0.2239 C   0  0  0  0  0  0
    3.9734    1.5032   -0.4792 C   0  0  0  0  0  0
    4.3885    0.4236   -1.2519 C   0  0  0  0  0  0
    3.5967   -0.7249   -1.3253 C   0  0  0  0  0  0
   -0.9589    2.9988   -0.0925 S   0  0  0  0  0  0
   -1.6735    4.4492    3.2295 H   0  0  0  0  0  0
   -0.0798    3.8359    2.7550 H   0  0  0  0  0  0
   -0.8093    5.2001    1.8823 H   0  0  0  0  0  0
   -3.4002    2.5754    2.5178 H   0  0  0  0  0  0
   -4.9062    0.8594    1.3109 H   0  0  0  0  0  0
   -3.9080   -0.2874    0.4082 H   0  0  0  0  0  0
   -4.8700    0.9401   -0.4549 H   0  0  0  0  0  0
    0.3845    0.8543   -2.1486 H   0  0  0  0  0  0
    0.5088   -1.2419   -3.0613 H   0  0  0  0  0  0
   -1.1853   -1.5274   -2.7598 H   0  0  0  0  0  0
   -0.1731   -3.0683   -1.4158 H   0  0  0  0  0  0
   -1.9126   -1.9431   -0.2018 H   0  0  0  0  0  0
   -0.8029   -0.7685    0.4708 H   0  0  0  0  0  0
   -1.2259   -2.4852    2.1251 H   0  0  0  0  0  0
   -0.8382   -3.7694    0.9834 H   0  0  0  0  0  0
    1.1061   -1.7021    2.1246 H   0  0  0  0  0  0
    1.0492   -3.4163    2.4980 H   0  0  0  0  0  0
    1.6580   -4.0395    0.2447 H   0  0  0  0  0  0
    2.8551   -2.9190    0.8689 H   0  0  0  0  0  0
    2.0301   -2.6679   -1.5512 H   0  0  0  0  0  0
    1.0726    0.2464    0.7374 H   0  0  0  0  0  0
    2.4518    2.2646    0.8383 H   0  0  0  0  0  0
    4.5855    2.3985   -0.4195 H   0  0  0  0  0  0
    5.3293    0.4713   -1.7944 H   0  0  0  0  0  0
    3.9498   -1.5599   -1.9272 H   0  0  0  0  0  0
  1  2  1  0  0  0
  1 25  1  0  0  0
  1 26  1  0  0  0
  1 27  1  0  0  0
  2  3  2  0  0  0
  2 24  1  0  0  0
  3  4  1  0  0  0
  3 28  1  0  0  0
  4  5  1  0  0  0
  4  6  2  0  0  0
  5 29  1  0  0  0
  5 30  1  0  0  0
  5 31  1  0  0  0
  6  7  1  0  0  0
  6 24  1  0  0  0
  7  8  2  0  0  0
  7  9  2  0  0  0
  7 10  1  0  0  0
 10 11  1  0  0  0
 10 32  1  0  0  0
 11 12  1  0  0  0
 11 33  1  0  0  0
 11 34  1  0  0  0
 12 13  1  0  0  0
 12 17  1  0  0  0
 12 35  1  0  0  0
 13 14  1  0  0  0
 13 36  1  0  0  0
 13 37  1  0  0  0
 14 15  1  0  0  0
 14 38  1  0  0  0
 14 39  1  0  0  0
 15 16  1  0  0  0
 15 40  1  0  0  0
 15 41  1  0  0  0
 16 17  1  0  0  0
 16 42  1  0  0  0
 16 43  1  0  0  0
 17 18  1  0  0  0
 17 44  1  0  0  0
 18 19  2  0  0  0
 18 23  1  0  0  0
 19 20  1  0  0  0
 19 45  1  0  0  0
 20 21  2  0  0  0
 20 46  1  0  0  0
 21 22  1  0  0  0
 21 47  1  0  0  0
 22 23  2  0  0  0
 22 48  1  0  0  0
 23 49  1  0  0  0
M  END
> <energy>
-5.40284

> <i_ionizer_Ion_state_n>
0

> <i_ionizer_Tot_Q>
0

> <s_ionizer_Ion_centers>


> <s_ionizer_Ion_types>


> <s_ionizer_Ion_ctrs_in>


> <r_ionizer_Ionization_penalty>
3.73821e-05

> <r_ionizer_Ionization_penalty_charging>
0

> <r_ionizer_Ionization_penalty_neutral>
3.73821e-05

$$$$
ZINC001211866085
                    3D
 Schrodinger Suite 2019-4.
 49 51  0  0  1  0            999 V2000
    3.8094   -3.2578   -0.3028 C   0  0  0  0  0  0
    2.7149   -2.1994   -0.0741 C   0  0  0  0  0  0
    1.9635   -2.0103   -1.4071 C   0  0  0  0  0  0
    1.7190   -2.7365    0.9729 C   0  0  0  0  0  0
    3.2917   -0.8791    0.4186 C   0  0  0  0  0  0
    4.4642   -0.6673    1.1179 C   0  0  0  0  0  0
    4.6067    0.9753    1.5804 S   0  0  0  0  0  0
    3.1279    1.3262    0.7757 C   0  0  0  0  0  0
    2.6457    2.5998    0.7721 N   0  0  0  0  0  0
    1.3953    2.8619    0.1765 C   0  0  0  0  0  0
    1.3610    3.3681   -1.1315 C   0  0  0  0  0  0
    0.1452    3.5602   -1.7887 C   0  0  0  0  0  0
   -1.0401    3.2152   -1.1464 C   0  0  0  0  0  0
   -2.1970    3.3546   -1.8077 F   0  0  0  0  0  0
   -1.0105    2.6907    0.1424 C   0  0  0  0  0  0
   -2.2483    2.2636    0.8038 C   0  0  0  0  0  0
   -2.7275    3.0187    1.6452 O   0  0  0  0  0  0
   -2.7699    1.0083    0.4949 N   0  0  0  0  0  0
   -3.9678    0.5761    1.2141 C   0  0  0  0  0  0
   -4.2775   -0.9037    1.0139 C   0  0  0  0  0  0
   -4.3462   -1.2724   -0.4655 C   0  0  0  0  0  0
   -3.2452   -0.6155   -1.2984 C   0  0  0  0  0  0
   -2.1732    0.0565   -0.4477 C   0  0  0  0  0  0
    0.1988    2.5437    0.8262 C   0  0  0  0  0  0
    2.5528    0.2791    0.2182 N   0  0  0  0  0  0
    4.3618   -3.4721    0.6180 H   0  0  0  0  0  0
    3.3832   -4.2064   -0.6513 H   0  0  0  0  0  0
    4.5346   -2.9259   -1.0550 H   0  0  0  0  0  0
    2.6272   -1.6057   -2.1791 H   0  0  0  0  0  0
    1.5617   -2.9618   -1.7786 H   0  0  0  0  0  0
    1.1195   -1.3194   -1.3044 H   0  0  0  0  0  0
    1.2623   -3.6787    0.6476 H   0  0  0  0  0  0
    2.2117   -2.9221    1.9347 H   0  0  0  0  0  0
    0.9071   -2.0210    1.1521 H   0  0  0  0  0  0
    5.2208   -1.3773    1.4144 H   0  0  0  0  0  0
    2.7249    3.0439    1.6814 H   0  0  0  0  0  0
    2.2938    3.6006   -1.6427 H   0  0  0  0  0  0
    0.1184    3.9556   -2.8002 H   0  0  0  0  0  0
   -3.8402    0.7919    2.2821 H   0  0  0  0  0  0
   -4.8000    1.1936    0.8562 H   0  0  0  0  0  0
   -3.4959   -1.5075    1.4935 H   0  0  0  0  0  0
   -5.2201   -1.1663    1.5078 H   0  0  0  0  0  0
   -4.2902   -2.3624   -0.5670 H   0  0  0  0  0  0
   -5.3235   -0.9807   -0.8714 H   0  0  0  0  0  0
   -2.7851   -1.3600   -1.9563 H   0  0  0  0  0  0
   -3.7031    0.1379   -1.9516 H   0  0  0  0  0  0
   -1.4497    0.5413   -1.1037 H   0  0  0  0  0  0
   -1.6194   -0.6847    0.1416 H   0  0  0  0  0  0
    0.2072    2.1313    1.8293 H   0  0  0  0  0  0
  1  2  1  0  0  0
  1 26  1  0  0  0
  1 27  1  0  0  0
  1 28  1  0  0  0
  2  3  1  0  0  0
  2  4  1  0  0  0
  2  5  1  0  0  0
  3 29  1  0  0  0
  3 30  1  0  0  0
  3 31  1  0  0  0
  4 32  1  0  0  0
  4 33  1  0  0  0
  4 34  1  0  0  0
  5  6  2  0  0  0
  5 25  1  0  0  0
  6  7  1  0  0  0
  6 35  1  0  0  0
  7  8  1  0  0  0
  8  9  1  0  0  0
  8 25  2  0  0  0
  9 10  1  0  0  0
  9 36  1  0  0  0
 10 11  2  0  0  0
 10 24  1  0  0  0
 11 12  1  0  0  0
 11 37  1  0  0  0
 12 13  2  0  0  0
 12 38  1  0  0  0
 13 14  1  0  0  0
 13 15  1  0  0  0
 15 16  1  0  0  0
 15 24  2  0  0  0
 16 17  2  0  0  0
 16 18  1  0  0  0
 18 19  1  0  0  0
 18 23  1  0  0  0
 19 20  1  0  0  0
 19 39  1  0  0  0
 19 40  1  0  0  0
 20 21  1  0  0  0
 20 41  1  0  0  0
 20 42  1  0  0  0
 21 22  1  0  0  0
 21 43  1  0  0  0
 21 44  1  0  0  0
 22 23  1  0  0  0
 22 45  1  0  0  0
 22 46  1  0  0  0
 23 47  1  0  0  0
 23 48  1  0  0  0
 24 49  1  0  0  0
M  END
> <energy>
16.6578

> <i_ionizer_Ion_state_n>
0

> <i_ionizer_Tot_Q>
0

> <s_ionizer_Ion_centers>


> <s_ionizer_Ion_types>


> <s_ionizer_Ion_ctrs_in>


> <r_ionizer_Ionization_penalty>
0

> <r_ionizer_Ionization_penalty_charging>
0

> <r_ionizer_Ionization_penalty_neutral>
0

$$$$
ZINC001211866142
                    3D
 Schrodinger Suite 2019-4.
 43 46  0  0  1  0            999 V2000
   -3.1658   -0.7889   -1.4602 F   0  0  0  0  0  0
   -3.9565   -1.3273   -0.5203 C   0  0  0  0  0  0
   -5.3195   -1.4226   -0.8027 C   0  0  0  0  0  0
   -6.1867   -1.9851    0.1305 C   0  0  0  0  0  0
   -5.6792   -2.4469    1.3438 C   0  0  0  0  0  0
   -6.7474   -3.1351    2.5034 Cl  0  0  0  0  0  0
   -4.3155   -2.3487    1.6311 C   0  0  0  0  0  0
   -3.4324   -1.7834    0.6958 C   0  0  0  0  0  0
   -2.0137   -1.6592    1.0006 C   0  0  0  0  0  0
   -1.4004   -2.3189    1.9983 N   0  0  0  0  0  0
   -0.0899   -1.8431    1.9608 O   0  0  0  0  0  0
   -0.0366   -0.9354    0.9417 C   0  0  0  0  0  0
    1.2712   -0.2074    0.7533 C   0  0  2  0  0  0
    2.5359   -1.8217   -0.5954 C   0  0  0  0  0  0
    2.6757   -0.8335   -1.7470 C   0  0  0  0  0  0
    1.4920    0.1295   -1.7988 C   0  0  0  0  0  0
    1.1899    0.7965   -0.4418 C   0  0  2  0  0  0
    2.0077    2.0679   -0.2211 C   0  0  0  0  0  0
    3.3657    2.0434    0.1236 C   0  0  0  0  0  0
    4.0657    3.2318    0.3445 C   0  0  0  0  0  0
    3.4197    4.4596    0.2260 C   0  0  0  0  0  0
    2.0736    4.5042   -0.1239 C   0  0  0  0  0  0
    1.3750    3.3175   -0.3508 C   0  0  0  0  0  0
   -1.1826   -0.8051    0.3156 N   0  0  0  0  0  0
   -5.6951   -1.0606   -1.7561 H   0  0  0  0  0  0
   -7.2476   -2.0635   -0.0908 H   0  0  0  0  0  0
   -3.9458   -2.7079    2.5902 H   0  0  0  0  0  0
    1.4022    0.3767    1.6767 H   0  0  0  0  0  0
    3.4197   -2.4701   -0.5709 H   0  0  0  0  0  0
    1.6689   -2.4755   -0.7489 H   0  0  0  0  0  0
    3.6137   -0.2756   -1.6498 H   0  0  0  0  0  0
    2.7417   -1.3811   -2.6945 H   0  0  0  0  0  0
    1.6562    0.8793   -2.5826 H   0  0  0  0  0  0
    0.6068   -0.4456   -2.1017 H   0  0  0  0  0  0
    0.1486    1.1420   -0.5147 H   0  0  0  0  0  0
    3.8956    1.1011    0.2338 H   0  0  0  0  0  0
    5.1173    3.1946    0.6136 H   0  0  0  0  0  0
    3.9664    5.3817    0.4033 H   0  0  0  0  0  0
    1.5661    5.4603   -0.2186 H   0  0  0  0  0  0
    0.3221    3.3796   -0.6227 H   0  0  0  0  0  0
    2.4530   -1.1268    0.7006 N   0  3  0  0  0  0
    3.3096   -0.5784    0.8408 H   0  0  0  0  0  0
    2.3671   -1.8247    1.4488 H   0  0  0  0  0  0
  1  2  1  0  0  0
  2  3  2  0  0  0
  2  8  1  0  0  0
  3  4  1  0  0  0
  3 25  1  0  0  0
  4  5  2  0  0  0
  4 26  1  0  0  0
  5  6  1  0  0  0
  5  7  1  0  0  0
  7  8  2  0  0  0
  7 27  1  0  0  0
  8  9  1  0  0  0
  9 10  2  0  0  0
  9 24  1  0  0  0
 10 11  1  0  0  0
 11 12  1  0  0  0
 12 13  1  0  0  0
 12 24  2  0  0  0
 13 17  1  0  0  0
 13 28  1  0  0  0
 13 41  1  0  0  0
 14 15  1  0  0  0
 14 29  1  0  0  0
 14 30  1  0  0  0
 14 41  1  0  0  0
 15 16  1  0  0  0
 15 31  1  0  0  0
 15 32  1  0  0  0
 16 17  1  0  0  0
 16 33  1  0  0  0
 16 34  1  0  0  0
 17 18  1  0  0  0
 17 35  1  0  0  0
 18 19  2  0  0  0
 18 23  1  0  0  0
 19 20  1  0  0  0
 19 36  1  0  0  0
 20 21  2  0  0  0
 20 37  1  0  0  0
 21 22  1  0  0  0
 21 38  1  0  0  0
 22 23  2  0  0  0
 22 39  1  0  0  0
 23 40  1  0  0  0
 41 42  1  0  0  0
 41 43  1  0  0  0
M  CHG  1  41   1
M  END
> <energy>
80.1384

> <i_ionizer_Ion_state_n>
1

> <i_ionizer_Tot_Q>
1

> <s_ionizer_Ion_centers>
41

> <s_ionizer_Ion_types>
N5

> <s_ionizer_Ion_ctrs_in>
14

> <r_ionizer_Ionization_penalty>
0.000148807

> <r_ionizer_Ionization_penalty_charging>
0.000148807

> <r_ionizer_Ionization_penalty_neutral>
0

$$$$
ZINC001211866144
                    3D
 Schrodinger Suite 2019-4.
 43 46  0  0  1  0            999 V2000
   -4.4207   -2.0053   -0.7980 F   0  0  0  0  0  0
   -4.5878   -0.7094   -0.4948 C   0  0  0  0  0  0
   -5.8126   -0.1115   -0.7906 C   0  0  0  0  0  0
   -6.0185    1.2347   -0.4829 C   0  0  0  0  0  0
   -5.0048    1.9673    0.1352 C   0  0  0  0  0  0
   -5.2640    3.6270    0.5123 Cl  0  0  0  0  0  0
   -3.7821    1.3675    0.4372 C   0  0  0  0  0  0
   -3.5643    0.0199    0.1107 C   0  0  0  0  0  0
   -2.2744   -0.5803    0.3700 C   0  0  0  0  0  0
   -1.7679   -0.7321    1.6017 N   0  0  0  0  0  0
   -0.4676   -1.1805    1.3652 O   0  0  0  0  0  0
   -0.3187   -1.2433    0.0083 C   0  0  0  0  0  0
    1.0358   -1.6095   -0.5394 C   0  0  1  0  0  0
    3.0674   -2.9151   -0.2845 C   0  0  0  0  0  0
    3.9505   -1.7175   -0.6281 C   0  0  0  0  0  0
    3.2214   -0.7031   -1.5064 C   0  0  0  0  0  0
    1.8173   -0.3340   -0.9823 C   0  0  2  0  0  0
    1.8697    0.8148    0.0239 C   0  0  0  0  0  0
    2.2962    0.6478    1.3487 C   0  0  0  0  0  0
    2.2794    1.7228    2.2434 C   0  0  0  0  0  0
    1.8452    2.9792    1.8278 C   0  0  0  0  0  0
    1.4285    3.1660    0.5139 C   0  0  0  0  0  0
    1.4470    2.0937   -0.3811 C   0  0  0  0  0  0
   -1.4111   -0.9163   -0.6474 N   0  0  0  0  0  0
   -6.5990   -0.6976   -1.2570 H   0  0  0  0  0  0
   -6.9666    1.7069   -0.7280 H   0  0  0  0  0  0
   -2.9943    1.9443    0.9159 H   0  0  0  0  0  0
    0.8328   -2.1914   -1.4520 H   0  0  0  0  0  0
    2.8583   -3.5036   -1.1876 H   0  0  0  0  0  0
    3.6104   -3.5742    0.4012 H   0  0  0  0  0  0
    4.8504   -2.0680   -1.1503 H   0  0  0  0  0  0
    4.2988   -1.2346    0.2914 H   0  0  0  0  0  0
    3.1053   -1.1512   -2.5033 H   0  0  0  0  0  0
    3.8449    0.1898   -1.6392 H   0  0  0  0  0  0
    1.2737    0.0598   -1.8547 H   0  0  0  0  0  0
    2.6287   -0.3212    1.7133 H   0  0  0  0  0  0
    2.5976    1.5742    3.2712 H   0  0  0  0  0  0
    1.8249    3.8112    2.5272 H   0  0  0  0  0  0
    1.0837    4.1408    0.1823 H   0  0  0  0  0  0
    1.1136    2.2627   -1.4031 H   0  0  0  0  0  0
    1.8140   -2.5056    0.3605 N   0  3  0  0  0  0
    2.0292   -2.0064    1.2315 H   0  0  0  0  0  0
    1.2548   -3.3399    0.5734 H   0  0  0  0  0  0
  1  2  1  0  0  0
  2  3  2  0  0  0
  2  8  1  0  0  0
  3  4  1  0  0  0
  3 25  1  0  0  0
  4  5  2  0  0  0
  4 26  1  0  0  0
  5  6  1  0  0  0
  5  7  1  0  0  0
  7  8  2  0  0  0
  7 27  1  0  0  0
  8  9  1  0  0  0
  9 10  2  0  0  0
  9 24  1  0  0  0
 10 11  1  0  0  0
 11 12  1  0  0  0
 12 13  1  0  0  0
 12 24  2  0  0  0
 13 17  1  0  0  0
 13 28  1  0  0  0
 13 41  1  0  0  0
 14 15  1  0  0  0
 14 29  1  0  0  0
 14 30  1  0  0  0
 14 41  1  0  0  0
 15 16  1  0  0  0
 15 31  1  0  0  0
 15 32  1  0  0  0
 16 17  1  0  0  0
 16 33  1  0  0  0
 16 34  1  0  0  0
 17 18  1  0  0  0
 17 35  1  0  0  0
 18 19  2  0  0  0
 18 23  1  0  0  0
 19 20  1  0  0  0
 19 36  1  0  0  0
 20 21  2  0  0  0
 20 37  1  0  0  0
 21 22  1  0  0  0
 21 38  1  0  0  0
 22 23  2  0  0  0
 22 39  1  0  0  0
 23 40  1  0  0  0
 41 42  1  0  0  0
 41 43  1  0  0  0
M  CHG  1  41   1
M  END
> <energy>
83.2132

> <i_ionizer_Ion_state_n>
1

> <i_ionizer_Tot_Q>
1

> <s_ionizer_Ion_centers>
41

> <s_ionizer_Ion_types>
N5

> <s_ionizer_Ion_ctrs_in>
14

> <r_ionizer_Ionization_penalty>
0.000148807

> <r_ionizer_Ionization_penalty_charging>
0.000148807

> <r_ionizer_Ionization_penalty_neutral>
0

$$$$
ZINC001211866146
                    3D
 Schrodinger Suite 2019-4.
 43 46  0  0  1  0            999 V2000
   -2.7972   -0.0026    1.9171 F   0  0  0  0  0  0
   -3.6874   -0.5734    1.0927 C   0  0  0  0  0  0
   -5.0320   -0.5198    1.4643 C   0  0  0  0  0  0
   -6.0051   -1.0790    0.6386 C   0  0  0  0  0  0
   -5.6242   -1.6870   -0.5555 C   0  0  0  0  0  0
   -6.8239   -2.3758   -1.5786 Cl  0  0  0  0  0  0
   -4.2794   -1.7423   -0.9286 C   0  0  0  0  0  0
   -3.2876   -1.1845   -0.1023 C   0  0  0  0  0  0
   -1.8846   -1.2435   -0.4895 C   0  0  0  0  0  0
   -1.4703   -1.5890   -1.7218 N   0  0  0  0  0  0
   -0.0825   -1.5040   -1.6452 O   0  0  0  0  0  0
    0.2122   -1.1258   -0.3686 C   0  0  0  0  0  0
    1.6697   -0.9650   -0.0339 C   0  0  1  0  0  0
    3.5013   -1.9276    1.2652 C   0  0  0  0  0  0
    3.7727   -0.5975    1.9589 C   0  0  0  0  0  0
    3.3888    0.5736    1.0614 C   0  0  0  0  0  0
    1.9313    0.4426    0.5764 C   0  0  1  0  0  0
    1.5762    1.5740   -0.3834 C   0  0  0  0  0  0
    0.4724    2.3950   -0.1031 C   0  0  0  0  0  0
    0.1107    3.4257   -0.9721 C   0  0  0  0  0  0
    0.8460    3.6496   -2.1331 C   0  0  0  0  0  0
    1.9398    2.8395   -2.4287 C   0  0  0  0  0  0
    2.3015    1.8056   -1.5625 C   0  0  0  0  0  0
   -0.8566   -0.9661    0.3798 N   0  0  0  0  0  0
   -5.3074   -0.0381    2.3980 H   0  0  0  0  0  0
   -7.0517   -1.0359    0.9288 H   0  0  0  0  0  0
   -4.0061   -2.2251   -1.8651 H   0  0  0  0  0  0
    2.2450   -1.0709   -0.9641 H   0  0  0  0  0  0
    4.1434   -2.0389    0.3833 H   0  0  0  0  0  0
    3.7532   -2.7453    1.9492 H   0  0  0  0  0  0
    3.2066   -0.5427    2.8974 H   0  0  0  0  0  0
    4.8342   -0.5272    2.2214 H   0  0  0  0  0  0
    3.5221    1.5165    1.6066 H   0  0  0  0  0  0
    4.0842    0.6019    0.2135 H   0  0  0  0  0  0
    1.2974    0.5472    1.4704 H   0  0  0  0  0  0
   -0.1238    2.2289    0.7929 H   0  0  0  0  0  0
   -0.7487    4.0503   -0.7425 H   0  0  0  0  0  0
    0.5644    4.4528   -2.8086 H   0  0  0  0  0  0
    2.5111    3.0116   -3.3372 H   0  0  0  0  0  0
    3.1557    1.1864   -1.8242 H   0  0  0  0  0  0
    2.0857   -2.0601    0.8941 N   0  3  0  0  0  0
    1.5107   -2.0169    1.7436 H   0  0  0  0  0  0
    1.9437   -2.9652    0.4304 H   0  0  0  0  0  0
  1  2  1  0  0  0
  2  3  2  0  0  0
  2  8  1  0  0  0
  3  4  1  0  0  0
  3 25  1  0  0  0
  4  5  2  0  0  0
  4 26  1  0  0  0
  5  6  1  0  0  0
  5  7  1  0  0  0
  7  8  2  0  0  0
  7 27  1  0  0  0
  8  9  1  0  0  0
  9 10  2  0  0  0
  9 24  1  0  0  0
 10 11  1  0  0  0
 11 12  1  0  0  0
 12 13  1  0  0  0
 12 24  2  0  0  0
 13 17  1  0  0  0
 13 28  1  0  0  0
 13 41  1  0  0  0
 14 15  1  0  0  0
 14 29  1  0  0  0
 14 30  1  0  0  0
 14 41  1  0  0  0
 15 16  1  0  0  0
 15 31  1  0  0  0
 15 32  1  0  0  0
 16 17  1  0  0  0
 16 33  1  0  0  0
 16 34  1  0  0  0
 17 18  1  0  0  0
 17 35  1  0  0  0
 18 19  2  0  0  0
 18 23  1  0  0  0
 19 20  1  0  0  0
 19 36  1  0  0  0
 20 21  2  0  0  0
 20 37  1  0  0  0
 21 22  1  0  0  0
 21 38  1  0  0  0
 22 23  2  0  0  0
 22 39  1  0  0  0
 23 40  1  0  0  0
 41 42  1  0  0  0
 41 43  1  0  0  0
M  CHG  1  41   1
M  END
> <energy>
76.7555

> <i_ionizer_Ion_state_n>
1

> <i_ionizer_Tot_Q>
1

> <s_ionizer_Ion_centers>
41

> <s_ionizer_Ion_types>
N5

> <s_ionizer_Ion_ctrs_in>
14

> <r_ionizer_Ionization_penalty>
0.000148807

> <r_ionizer_Ionization_penalty_charging>
0.000148807

> <r_ionizer_Ionization_penalty_neutral>
0

$$$$
ZINC001211866148
                    3D
 Schrodinger Suite 2019-4.
 43 46  0  0  1  0            999 V2000
   -1.9788    2.9121   -2.7487 F   0  0  0  0  0  0
   -3.0270    2.6250   -1.9638 C   0  0  0  0  0  0
   -4.1046    3.5123   -1.9766 C   0  0  0  0  0  0
   -5.2098    3.2752   -1.1613 C   0  0  0  0  0  0
   -5.2259    2.1537   -0.3350 C   0  0  0  0  0  0
   -6.5893    1.8575    0.6700 Cl  0  0  0  0  0  0
   -4.1448    1.2701   -0.3147 C   0  0  0  0  0  0
   -3.0278    1.4960   -1.1365 C   0  0  0  0  0  0
   -1.9012    0.5759   -1.0879 C   0  0  0  0  0  0
   -1.0449    0.3663   -2.0984 N   0  0  0  0  0  0
   -0.1410   -0.5610   -1.5839 O   0  0  0  0  0  0
   -0.5462   -0.8352   -0.3099 C   0  0  0  0  0  0
    0.2820   -1.7886    0.5063 C   0  0  2  0  0  0
    1.5008   -3.9161    0.5667 C   0  0  0  0  0  0
    1.8452   -3.4583    1.9870 C   0  0  0  0  0  0
    2.3760   -2.0308    1.9924 C   0  0  0  0  0  0
    1.3654   -1.0456    1.3537 C   0  0  1  0  0  0
    2.1003    0.0845    0.6432 C   0  0  0  0  0  0
    1.9503    1.4068    1.0890 C   0  0  0  0  0  0
    2.5913    2.4578    0.4305 C   0  0  0  0  0  0
    3.3924    2.2011   -0.6788 C   0  0  0  0  0  0
    3.5543    0.8940   -1.1311 C   0  0  0  0  0  0
    2.9123   -0.1580   -0.4757 C   0  0  0  0  0  0
   -1.6442   -0.1925    0.0310 N   0  0  0  0  0  0
   -4.0690    4.3879   -2.6193 H   0  0  0  0  0  0
   -6.0465    3.9685   -1.1690 H   0  0  0  0  0  0
   -4.1721    0.4003    0.3385 H   0  0  0  0  0  0
   -0.4308   -2.2432    1.2101 H   0  0  0  0  0  0
    0.8577   -4.8024    0.6311 H   0  0  0  0  0  0
    2.4164   -4.2366    0.0558 H   0  0  0  0  0  0
    0.9558   -3.5176    2.6261 H   0  0  0  0  0  0
    2.5886   -4.1368    2.4214 H   0  0  0  0  0  0
    3.3393   -2.0209    1.4694 H   0  0  0  0  0  0
    2.5928   -1.7173    3.0210 H   0  0  0  0  0  0
    0.8140   -0.5928    2.1908 H   0  0  0  0  0  0
    1.3209    1.6337    1.9469 H   0  0  0  0  0  0
    2.4584    3.4784    0.7794 H   0  0  0  0  0  0
    3.8863    3.0194   -1.1953 H   0  0  0  0  0  0
    4.1734    0.6912   -2.0009 H   0  0  0  0  0  0
    3.0410   -1.1702   -0.8557 H   0  0  0  0  0  0
    0.8549   -2.9056   -0.2975 N   0  3  0  0  0  0
    0.1008   -3.3547   -0.8304 H   0  0  0  0  0  0
    1.5536   -2.5258   -0.9469 H   0  0  0  0  0  0
  1  2  1  0  0  0
  2  3  2  0  0  0
  2  8  1  0  0  0
  3  4  1  0  0  0
  3 25  1  0  0  0
  4  5  2  0  0  0
  4 26  1  0  0  0
  5  6  1  0  0  0
  5  7  1  0  0  0
  7  8  2  0  0  0
  7 27  1  0  0  0
  8  9  1  0  0  0
  9 10  2  0  0  0
  9 24  1  0  0  0
 10 11  1  0  0  0
 11 12  1  0  0  0
 12 13  1  0  0  0
 12 24  2  0  0  0
 13 17  1  0  0  0
 13 28  1  0  0  0
 13 41  1  0  0  0
 14 15  1  0  0  0
 14 29  1  0  0  0
 14 30  1  0  0  0
 14 41  1  0  0  0
 15 16  1  0  0  0
 15 31  1  0  0  0
 15 32  1  0  0  0
 16 17  1  0  0  0
 16 33  1  0  0  0
 16 34  1  0  0  0
 17 18  1  0  0  0
 17 35  1  0  0  0
 18 19  2  0  0  0
 18 23  1  0  0  0
 19 20  1  0  0  0
 19 36  1  0  0  0
 20 21  2  0  0  0
 20 37  1  0  0  0
 21 22  1  0  0  0
 21 38  1  0  0  0
 22 23  2  0  0  0
 22 39  1  0  0  0
 23 40  1  0  0  0
 41 42  1  0  0  0
 41 43  1  0  0  0
M  CHG  1  41   1
M  END
> <energy>
87.2449

> <i_ionizer_Ion_state_n>
1

> <i_ionizer_Tot_Q>
1

> <s_ionizer_Ion_centers>
41

> <s_ionizer_Ion_types>
N5

> <s_ionizer_Ion_ctrs_in>
14

> <r_ionizer_Ionization_penalty>
0.000148807

> <r_ionizer_Ionization_penalty_charging>
0.000148807

> <r_ionizer_Ionization_penalty_neutral>
0

$$$$
ZINC001211866220
                    3D
 Schrodinger Suite 2019-4.
 44 47  0  0  1  0            999 V2000
    3.7417   -2.3575   -1.0904 O   0  0  0  0  0  0
    2.8637   -1.7015   -0.5375 C   0  0  0  0  0  0
    1.6320   -2.4111   -0.1472 C   0  0  0  0  0  0
    0.4077   -2.0746   -0.7333 C   0  0  0  0  0  0
   -0.7649   -2.7240   -0.3275 C   0  0  0  0  0  0
   -2.0248   -2.3035   -0.8189 N   0  0  0  0  0  0
   -2.6394   -1.1987   -0.3007 C   0  0  0  0  0  0
   -3.2488   -0.3306   -1.0761 N   0  0  0  0  0  0
   -3.7530    0.7169   -0.3175 C   0  0  0  0  0  0
   -3.5397    0.6320    1.0559 C   0  0  0  0  0  0
   -3.9891    1.6312    1.9371 C   0  0  0  0  0  0
   -4.6595    2.7392    1.4007 C   0  0  0  0  0  0
   -4.8843    2.8477    0.0312 C   0  0  0  0  0  0
   -4.4415    1.8399   -0.8204 C   0  0  0  0  0  0
   -4.6800    1.9668   -2.1676 O   0  0  0  0  0  0
   -2.6897   -0.8229    1.3860 S   0  0  0  0  0  0
   -0.6903   -3.7365    0.6382 C   0  0  0  0  0  0
    0.5408   -4.1044    1.1858 C   0  0  0  0  0  0
    1.6981   -3.4356    0.7932 C   0  0  0  0  0  0
    2.8596   -3.7756    1.3685 F   0  0  0  0  0  0
    2.9540   -0.3281   -0.2882 N   0  0  0  0  0  0
    2.0083    0.4078    0.5592 C   0  0  0  0  0  0
    2.3826    1.8772    0.7421 C   0  0  0  0  0  0
    2.8135    2.4868   -0.5846 C   0  0  0  0  0  0
    3.9856    1.7273   -1.2079 C   0  0  0  0  0  0
    4.2133    0.3455   -0.5953 C   0  0  0  0  0  0
    0.3684   -1.2877   -1.4810 H   0  0  0  0  0  0
   -1.9846   -2.2202   -1.8338 H   0  0  0  0  0  0
   -3.8205    1.5524    3.0069 H   0  0  0  0  0  0
   -5.0115    3.5272    2.0641 H   0  0  0  0  0  0
   -5.4017    3.7130   -0.3764 H   0  0  0  0  0  0
   -4.3093    1.1545   -2.5671 H   0  0  0  0  0  0
   -1.5962   -4.2423    0.9668 H   0  0  0  0  0  0
    0.6033   -4.8952    1.9274 H   0  0  0  0  0  0
    1.9482   -0.0896    1.5337 H   0  0  0  0  0  0
    1.0178    0.3526    0.0967 H   0  0  0  0  0  0
    1.5312    2.4289    1.1560 H   0  0  0  0  0  0
    3.1998    1.9671    1.4673 H   0  0  0  0  0  0
    1.9654    2.4662   -1.2807 H   0  0  0  0  0  0
    3.0786    3.5420   -0.4537 H   0  0  0  0  0  0
    4.9074    2.3119   -1.1065 H   0  0  0  0  0  0
    3.8059    1.6281   -2.2853 H   0  0  0  0  0  0
    4.8353   -0.2559   -1.2675 H   0  0  0  0  0  0
    4.7669    0.4333    0.3486 H   0  0  0  0  0  0
  1  2  2  0  0  0
  2  3  1  0  0  0
  2 21  1  0  0  0
  3  4  2  0  0  0
  3 19  1  0  0  0
  4  5  1  0  0  0
  4 27  1  0  0  0
  5  6  1  0  0  0
  5 17  2  0  0  0
  6  7  1  0  0  0
  6 28  1  0  0  0
  7  8  2  0  0  0
  7 16  1  0  0  0
  8  9  1  0  0  0
  9 10  2  0  0  0
  9 14  1  0  0  0
 10 11  1  0  0  0
 10 16  1  0  0  0
 11 12  2  0  0  0
 11 29  1  0  0  0
 12 13  1  0  0  0
 12 30  1  0  0  0
 13 14  2  0  0  0
 13 31  1  0  0  0
 14 15  1  0  0  0
 15 32  1  0  0  0
 17 18  1  0  0  0
 17 33  1  0  0  0
 18 19  2  0  0  0
 18 34  1  0  0  0
 19 20  1  0  0  0
 21 22  1  0  0  0
 21 26  1  0  0  0
 22 23  1  0  0  0
 22 35  1  0  0  0
 22 36  1  0  0  0
 23 24  1  0  0  0
 23 37  1  0  0  0
 23 38  1  0  0  0
 24 25  1  0  0  0
 24 39  1  0  0  0
 24 40  1  0  0  0
 25 26  1  0  0  0
 25 41  1  0  0  0
 25 42  1  0  0  0
 26 43  1  0  0  0
 26 44  1  0  0  0
M  END
> <energy>
20.9022

> <i_ionizer_Ion_state_n>
0

> <i_ionizer_Tot_Q>
0

> <s_ionizer_Ion_centers>


> <s_ionizer_Ion_types>


> <s_ionizer_Ion_ctrs_in>


> <r_ionizer_Ionization_penalty>
0.00148639

> <r_ionizer_Ionization_penalty_charging>
0

> <r_ionizer_Ionization_penalty_neutral>
0.00148639

$$$$
ZINC001211866232
                    3D
 Schrodinger Suite 2019-4.
 50 53  0  0  1  0            999 V2000
    1.9490    0.4863   -2.4068 O   0  0  0  0  0  0
    2.4347   -0.1100   -1.4537 C   0  0  0  0  0  0
    1.9645   -1.4805   -1.1896 C   0  0  0  0  0  0
    0.8169   -1.6259   -0.4011 C   0  0  0  0  0  0
    0.2422   -2.8920   -0.2062 C   0  0  0  0  0  0
   -0.9418   -3.0914    0.5673 N   0  0  0  0  0  0
   -1.7983   -2.0573    0.7592 C   0  0  0  0  0  0
   -2.8572   -1.6020    0.0195 C   0  0  0  0  0  0
   -3.2032   -0.3691    0.6224 C   0  0  0  0  0  0
   -4.1221    0.6651    0.0685 C   0  0  0  0  0  0
   -4.0022    2.0650    0.6718 C   0  0  0  0  0  0
   -5.2360    2.7940    0.1390 C   0  0  0  0  0  0
   -6.2778    1.7054   -0.1338 C   0  0  0  0  0  0
   -5.6102    0.3797    0.2383 C   0  0  0  0  0  0
   -2.4928   -0.1663    1.7393 N   0  0  0  0  0  0
   -1.5979   -1.2225    1.8134 O   0  0  0  0  0  0
    0.8939   -4.0104   -0.7495 C   0  0  0  0  0  0
    2.0363   -3.8560   -1.5451 C   0  0  0  0  0  0
    2.5600   -2.5868   -1.7803 C   0  0  0  0  0  0
    3.6455   -2.4584   -2.5548 F   0  0  0  0  0  0
    3.2638    0.4832   -0.4921 N   0  0  0  0  0  0
    3.4090    1.9331   -0.5840 C   0  0  0  0  0  0
    3.8622    2.5257    0.7467 C   0  0  0  0  0  0
    5.1581    1.8739    1.2204 C   0  0  0  0  0  0
    5.0197    0.3532    1.2755 C   0  0  0  0  0  0
    4.4481   -0.2312   -0.0168 C   0  0  0  0  0  0
    0.3591   -0.7312    0.0172 H   0  0  0  0  0  0
   -1.3939   -3.9281    0.2011 H   0  0  0  0  0  0
   -3.2305   -2.0198   -0.8998 H   0  0  0  0  0  0
   -3.9092    0.7434   -1.0070 H   0  0  0  0  0  0
   -3.0719    2.5662    0.3861 H   0  0  0  0  0  0
   -4.0428    2.0315    1.7683 H   0  0  0  0  0  0
   -5.5964    3.5398    0.8543 H   0  0  0  0  0  0
   -4.9919    3.3195   -0.7935 H   0  0  0  0  0  0
   -7.2002    1.8702    0.4340 H   0  0  0  0  0  0
   -6.5422    1.7116   -1.1988 H   0  0  0  0  0  0
   -5.9596   -0.4409   -0.3947 H   0  0  0  0  0  0
   -5.8503    0.1174    1.2759 H   0  0  0  0  0  0
    0.5059   -5.0137   -0.5818 H   0  0  0  0  0  0
    2.5167   -4.7222   -1.9878 H   0  0  0  0  0  0
    4.1254    2.1545   -1.3832 H   0  0  0  0  0  0
    2.4521    2.3873   -0.8691 H   0  0  0  0  0  0
    3.0802    2.3662    1.5026 H   0  0  0  0  0  0
    3.9926    3.6099    0.6501 H   0  0  0  0  0  0
    5.4265    2.2573    2.2118 H   0  0  0  0  0  0
    5.9769    2.1463    0.5476 H   0  0  0  0  0  0
    4.3676    0.0852    2.1166 H   0  0  0  0  0  0
    5.9968   -0.0992    1.4812 H   0  0  0  0  0  0
    4.2322   -1.2939    0.1228 H   0  0  0  0  0  0
    5.1929   -0.1620   -0.8211 H   0  0  0  0  0  0
  1  2  2  0  0  0
  2  3  1  0  0  0
  2 21  1  0  0  0
  3  4  2  0  0  0
  3 19  1  0  0  0
  4  5  1  0  0  0
  4 27  1  0  0  0
  5  6  1  0  0  0
  5 17  2  0  0  0
  6  7  1  0  0  0
  6 28  1  0  0  0
  7  8  2  0  0  0
  7 16  1  0  0  0
  8  9  1  0  0  0
  8 29  1  0  0  0
  9 10  1  0  0  0
  9 15  2  0  0  0
 10 11  1  0  0  0
 10 14  1  0  0  0
 10 30  1  0  0  0
 11 12  1  0  0  0
 11 31  1  0  0  0
 11 32  1  0  0  0
 12 13  1  0  0  0
 12 33  1  0  0  0
 12 34  1  0  0  0
 13 14  1  0  0  0
 13 35  1  0  0  0
 13 36  1  0  0  0
 14 37  1  0  0  0
 14 38  1  0  0  0
 15 16  1  0  0  0
 17 18  1  0  0  0
 17 39  1  0  0  0
 18 19  2  0  0  0
 18 40  1  0  0  0
 19 20  1  0  0  0
 21 22  1  0  0  0
 21 26  1  0  0  0
 22 23  1  0  0  0
 22 41  1  0  0  0
 22 42  1  0  0  0
 23 24  1  0  0  0
 23 43  1  0  0  0
 23 44  1  0  0  0
 24 25  1  0  0  0
 24 45  1  0  0  0
 24 46  1  0  0  0
 25 26  1  0  0  0
 25 47  1  0  0  0
 25 48  1  0  0  0
 26 49  1  0  0  0
 26 50  1  0  0  0
M  END
> <energy>
27.7039

> <i_ionizer_Ion_state_n>
0

> <i_ionizer_Tot_Q>
0

> <s_ionizer_Ion_centers>


> <s_ionizer_Ion_types>


> <s_ionizer_Ion_ctrs_in>


> <r_ionizer_Ionization_penalty>
0

> <r_ionizer_Ionization_penalty_charging>
0

> <r_ionizer_Ionization_penalty_neutral>
0

$$$$
ZINC001211866327
                    3D
 Schrodinger Suite 2019-4.
 43 46  0  0  1  0            999 V2000
    6.3664   -2.7226    1.2619 F   0  0  0  0  0  0
    5.4401   -2.3954    0.3515 C   0  0  0  0  0  0
    5.5550   -2.8903   -0.9408 C   0  0  0  0  0  0
    4.5928   -2.5429   -1.8805 C   0  0  0  0  0  0
    4.7138   -3.1436   -3.4888 Cl  0  0  0  0  0  0
    3.5266   -1.7112   -1.5326 C   0  0  0  0  0  0
    3.4122   -1.2103   -0.2255 C   0  0  0  0  0  0
    2.2986   -0.3350    0.1216 C   0  0  0  0  0  0
    2.1304    0.2318    1.3273 N   0  0  0  0  0  0
    0.9659    0.9841    1.1805 O   0  0  0  0  0  0
    0.5398    0.7945   -0.1024 C   0  0  0  0  0  0
   -0.6884    1.5440   -0.5427 C   0  0  1  0  0  0
   -1.4712    3.8958   -0.5016 C   0  0  0  0  0  0
   -2.8197    3.3140   -0.9009 C   0  0  0  0  0  0
   -3.1484    2.0504   -0.1079 C   0  0  0  0  0  0
   -1.8919    1.3233    0.4172 C   0  0  1  0  0  0
   -2.2510   -0.1271    0.7132 C   0  0  0  0  0  0
   -2.2816   -1.1097   -0.2883 C   0  0  0  0  0  0
   -2.6362   -2.4257    0.0169 C   0  0  0  0  0  0
   -2.9748   -2.7749    1.3220 C   0  0  0  0  0  0
   -2.9639   -1.8083    2.3238 C   0  0  0  0  0  0
   -2.6049   -0.4935    2.0219 C   0  0  0  0  0  0
    1.3247   -0.0008   -0.7939 N   0  0  0  0  0  0
    4.3851   -1.5633    0.7188 C   0  0  0  0  0  0
    6.3888   -3.5353   -1.1981 H   0  0  0  0  0  0
    2.7825   -1.4494   -2.2827 H   0  0  0  0  0  0
   -0.9578    1.1419   -1.5286 H   0  0  0  0  0  0
   -1.4797    4.1582    0.5636 H   0  0  0  0  0  0
   -1.2948    4.8247   -1.0554 H   0  0  0  0  0  0
   -2.8132    3.0776   -1.9731 H   0  0  0  0  0  0
   -3.6127    4.0558   -0.7547 H   0  0  0  0  0  0
   -3.7579    1.3963   -0.7448 H   0  0  0  0  0  0
   -3.7869    2.3080    0.7476 H   0  0  0  0  0  0
   -1.6183    1.7904    1.3755 H   0  0  0  0  0  0
   -2.0365   -0.8700   -1.3203 H   0  0  0  0  0  0
   -2.6521   -3.1782   -0.7677 H   0  0  0  0  0  0
   -3.2488   -3.7995    1.5569 H   0  0  0  0  0  0
   -3.2359   -2.0771    3.3409 H   0  0  0  0  0  0
   -2.6095    0.2451    2.8207 H   0  0  0  0  0  0
    4.3392   -1.2012    1.7427 H   0  0  0  0  0  0
   -0.3367    2.9880   -0.7849 N   0  3  0  0  0  0
    0.4504    3.2431   -0.1769 H   0  0  0  0  0  0
   -0.0608    3.1008   -1.7675 H   0  0  0  0  0  0
  1  2  1  0  0  0
  2  3  2  0  0  0
  2 24  1  0  0  0
  3  4  1  0  0  0
  3 25  1  0  0  0
  4  5  1  0  0  0
  4  6  2  0  0  0
  6  7  1  0  0  0
  6 26  1  0  0  0
  7  8  1  0  0  0
  7 24  2  0  0  0
  8  9  2  0  0  0
  8 23  1  0  0  0
  9 10  1  0  0  0
 10 11  1  0  0  0
 11 12  1  0  0  0
 11 23  2  0  0  0
 12 16  1  0  0  0
 12 27  1  0  0  0
 12 41  1  0  0  0
 13 14  1  0  0  0
 13 28  1  0  0  0
 13 29  1  0  0  0
 13 41  1  0  0  0
 14 15  1  0  0  0
 14 30  1  0  0  0
 14 31  1  0  0  0
 15 16  1  0  0  0
 15 32  1  0  0  0
 15 33  1  0  0  0
 16 17  1  0  0  0
 16 34  1  0  0  0
 17 18  2  0  0  0
 17 22  1  0  0  0
 18 19  1  0  0  0
 18 35  1  0  0  0
 19 20  2  0  0  0
 19 36  1  0  0  0
 20 21  1  0  0  0
 20 37  1  0  0  0
 21 22  2  0  0  0
 21 38  1  0  0  0
 22 39  1  0  0  0
 24 40  1  0  0  0
 41 42  1  0  0  0
 41 43  1  0  0  0
M  CHG  1  41   1
M  END
> <energy>
69.5064

> <i_ionizer_Ion_state_n>
1

> <i_ionizer_Tot_Q>
1

> <s_ionizer_Ion_centers>
41

> <s_ionizer_Ion_types>
N5

> <s_ionizer_Ion_ctrs_in>
13

> <r_ionizer_Ionization_penalty>
0.000148807

> <r_ionizer_Ionization_penalty_charging>
0.000148807

> <r_ionizer_Ionization_penalty_neutral>
0

$$$$
ZINC001211866338
                    3D
 Schrodinger Suite 2019-4.
 45 48  0  0  1  0            999 V2000
    4.1714    2.4348    2.8580 C   0  0  0  0  0  0
    4.3825    1.5556    1.6740 C   0  0  0  0  0  0
    3.4567    1.0923    0.7619 C   0  0  0  0  0  0
    4.0417    0.2663   -0.2642 C   0  0  0  0  0  0
    5.4034    0.1167   -0.0495 C   0  0  0  0  0  0
    6.2540   -0.6126   -0.7869 N   0  0  0  0  0  0
    5.6453   -1.2300   -1.7999 C   0  0  0  0  0  0
    4.3474   -1.1731   -2.1307 N   0  0  0  0  0  0
    3.5154   -0.4131   -1.3814 C   0  0  0  0  0  0
    2.1525   -0.3158   -1.7513 N   0  0  0  0  0  0
    1.1856   -1.1942   -1.1933 C   0  0  0  0  0  0
    1.4270   -2.5680   -1.0600 C   0  0  0  0  0  0
    0.4902   -3.3908   -0.4329 C   0  0  0  0  0  0
   -0.6902   -2.8416    0.0582 C   0  0  0  0  0  0
   -1.5533   -3.6500    0.6911 F   0  0  0  0  0  0
   -0.9698   -1.4851   -0.1173 C   0  0  0  0  0  0
   -2.1693   -0.9171    0.5254 C   0  0  0  0  0  0
   -2.3628   -1.1276    1.7184 O   0  0  0  0  0  0
   -3.0639   -0.2163   -0.2971 N   0  0  0  0  0  0
   -2.8999    1.2395   -0.3515 C   0  0  0  0  0  0
   -3.9113    1.9758    0.5234 C   0  0  0  0  0  0
   -5.3568    1.6464    0.1352 C   0  0  0  0  0  0
   -5.4766    0.3314   -0.6385 C   0  0  0  0  0  0
   -4.4467   -0.6718   -0.1417 C   0  0  0  0  0  0
   -0.0467   -0.6716   -0.7770 C   0  0  0  0  0  0
    5.9540    0.9868    1.3059 S   0  0  0  0  0  0
    3.1234    2.4154    3.1735 H   0  0  0  0  0  0
    4.4344    3.4694    2.6136 H   0  0  0  0  0  0
    4.7819    2.1176    3.7108 H   0  0  0  0  0  0
    2.4014    1.3219    0.8290 H   0  0  0  0  0  0
    6.2758   -1.8477   -2.4313 H   0  0  0  0  0  0
    1.8619    0.6401   -1.5675 H   0  0  0  0  0  0
    2.3529   -3.0015   -1.4289 H   0  0  0  0  0  0
    0.6880   -4.4501   -0.3023 H   0  0  0  0  0  0
   -3.0121    1.5438   -1.3991 H   0  0  0  0  0  0
   -1.8921    1.5190   -0.0341 H   0  0  0  0  0  0
   -3.7500    1.6848    1.5699 H   0  0  0  0  0  0
   -3.7483    3.0580    0.4701 H   0  0  0  0  0  0
   -5.7956    2.4601   -0.4546 H   0  0  0  0  0  0
   -5.9513    1.5812    1.0546 H   0  0  0  0  0  0
   -6.4855   -0.0722   -0.5124 H   0  0  0  0  0  0
   -5.3455    0.5114   -1.7112 H   0  0  0  0  0  0
   -4.6440   -0.8779    0.9163 H   0  0  0  0  0  0
   -4.5272   -1.6259   -0.6761 H   0  0  0  0  0  0
   -0.2480    0.3858   -0.8984 H   0  0  0  0  0  0
  1  2  1  0  0  0
  1 27  1  0  0  0
  1 28  1  0  0  0
  1 29  1  0  0  0
  2  3  2  0  0  0
  2 26  1  0  0  0
  3  4  1  0  0  0
  3 30  1  0  0  0
  4  5  2  0  0  0
  4  9  1  0  0  0
  5  6  1  0  0  0
  5 26  1  0  0  0
  6  7  2  0  0  0
  7  8  1  0  0  0
  7 31  1  0  0  0
  8  9  2  0  0  0
  9 10  1  0  0  0
 10 11  1  0  0  0
 10 32  1  0  0  0
 11 12  2  0  0  0
 11 25  1  0  0  0
 12 13  1  0  0  0
 12 33  1  0  0  0
 13 14  2  0  0  0
 13 34  1  0  0  0
 14 15  1  0  0  0
 14 16  1  0  0  0
 16 17  1  0  0  0
 16 25  2  0  0  0
 17 18  2  0  0  0
 17 19  1  0  0  0
 19 20  1  0  0  0
 19 24  1  0  0  0
 20 21  1  0  0  0
 20 35  1  0  0  0
 20 36  1  0  0  0
 21 22  1  0  0  0
 21 37  1  0  0  0
 21 38  1  0  0  0
 22 23  1  0  0  0
 22 39  1  0  0  0
 22 40  1  0  0  0
 23 24  1  0  0  0
 23 41  1  0  0  0
 23 42  1  0  0  0
 24 43  1  0  0  0
 24 44  1  0  0  0
 25 45  1  0  0  0
M  END
> <energy>
18.6954

> <i_ionizer_Ion_state_n>
0

> <i_ionizer_Tot_Q>
0

> <s_ionizer_Ion_centers>


> <s_ionizer_Ion_types>


> <s_ionizer_Ion_ctrs_in>


> <r_ionizer_Ionization_penalty>
0

> <r_ionizer_Ionization_penalty_charging>
0

> <r_ionizer_Ionization_penalty_neutral>
0

$$$$
ZINC001211866341
                    3D
 Schrodinger Suite 2019-4.
 43 46  0  0  1  0            999 V2000
    4.8445   -2.4992    2.8141 F   0  0  0  0  0  0
    4.2988   -2.5506    1.5922 C   0  0  0  0  0  0
    4.4804   -3.6860    0.8138 C   0  0  0  0  0  0
    3.9044   -3.7383   -0.4503 C   0  0  0  0  0  0
    4.0978   -5.1484   -1.4145 Cl  0  0  0  0  0  0
    3.1677   -2.6584   -0.9403 C   0  0  0  0  0  0
    2.9936   -1.5078   -0.1560 C   0  0  0  0  0  0
    2.1989   -0.3864   -0.6375 C   0  0  0  0  0  0
    1.9302   -0.1509   -1.9325 N   0  0  0  0  0  0
    1.0346    0.9174   -1.8957 O   0  0  0  0  0  0
    0.8493    1.2192   -0.5764 C   0  0  0  0  0  0
   -0.2275    2.2262   -0.2530 C   0  0  1  0  0  0
   -1.3126    3.4813    1.5422 C   0  0  0  0  0  0
   -2.6914    2.9678    1.1448 C   0  0  0  0  0  0
   -2.7606    2.6730   -0.3496 C   0  0  0  0  0  0
   -1.6034    1.7801   -0.8480 C   0  0  2  0  0  0
   -1.9512    0.3023   -0.6872 C   0  0  0  0  0  0
   -1.8405   -0.3632    0.5402 C   0  0  0  0  0  0
   -2.1368   -1.7234    0.6443 C   0  0  0  0  0  0
   -2.5430   -2.4411   -0.4774 C   0  0  0  0  0  0
   -2.6547   -1.7974   -1.7060 C   0  0  0  0  0  0
   -2.3697   -0.4343   -1.8099 C   0  0  0  0  0  0
    1.6094    0.5054    0.2265 N   0  0  0  0  0  0
    3.5613   -1.4686    1.1249 C   0  0  0  0  0  0
    5.0569   -4.5185    1.2043 H   0  0  0  0  0  0
    2.7093   -2.7221   -1.9252 H   0  0  0  0  0  0
    0.0614    3.1653   -0.7466 H   0  0  0  0  0  0
   -1.1064    4.4424    1.0598 H   0  0  0  0  0  0
   -1.2953    3.6592    2.6245 H   0  0  0  0  0  0
   -2.9317    2.0642    1.7160 H   0  0  0  0  0  0
   -3.4497    3.7115    1.4123 H   0  0  0  0  0  0
   -2.7150    3.6315   -0.8825 H   0  0  0  0  0  0
   -3.7348    2.2300   -0.5905 H   0  0  0  0  0  0
   -1.5325    1.9604   -1.9327 H   0  0  0  0  0  0
   -1.5015    0.1592    1.4329 H   0  0  0  0  0  0
   -2.0380   -2.2245    1.6030 H   0  0  0  0  0  0
   -2.7685   -3.4998   -0.3965 H   0  0  0  0  0  0
   -2.9546   -2.3549   -2.5885 H   0  0  0  0  0  0
   -2.4577    0.0453   -2.7818 H   0  0  0  0  0  0
    3.4315   -0.6023    1.7675 H   0  0  0  0  0  0
   -0.2717    2.4993    1.2157 N   0  3  0  0  0  0
   -0.4698    1.6234    1.7136 H   0  0  0  0  0  0
    0.6395    2.8650    1.5160 H   0  0  0  0  0  0
  1  2  1  0  0  0
  2  3  2  0  0  0
  2 24  1  0  0  0
  3  4  1  0  0  0
  3 25  1  0  0  0
  4  5  1  0  0  0
  4  6  2  0  0  0
  6  7  1  0  0  0
  6 26  1  0  0  0
  7  8  1  0  0  0
  7 24  2  0  0  0
  8  9  2  0  0  0
  8 23  1  0  0  0
  9 10  1  0  0  0
 10 11  1  0  0  0
 11 12  1  0  0  0
 11 23  2  0  0  0
 12 16  1  0  0  0
 12 27  1  0  0  0
 12 41  1  0  0  0
 13 14  1  0  0  0
 13 28  1  0  0  0
 13 29  1  0  0  0
 13 41  1  0  0  0
 14 15  1  0  0  0
 14 30  1  0  0  0
 14 31  1  0  0  0
 15 16  1  0  0  0
 15 32  1  0  0  0
 15 33  1  0  0  0
 16 17  1  0  0  0
 16 34  1  0  0  0
 17 18  2  0  0  0
 17 22  1  0  0  0
 18 19  1  0  0  0
 18 35  1  0  0  0
 19 20  2  0  0  0
 19 36  1  0  0  0
 20 21  1  0  0  0
 20 37  1  0  0  0
 21 22  2  0  0  0
 21 38  1  0  0  0
 22 39  1  0  0  0
 24 40  1  0  0  0
 41 42  1  0  0  0
 41 43  1  0  0  0
M  CHG  1  41   1
M  END
> <energy>
67.2673

> <i_ionizer_Ion_state_n>
1

> <i_ionizer_Tot_Q>
1

> <s_ionizer_Ion_centers>
41

> <s_ionizer_Ion_types>
N5

> <s_ionizer_Ion_ctrs_in>
13

> <r_ionizer_Ionization_penalty>
0.000148807

> <r_ionizer_Ionization_penalty_charging>
0.000148807

> <r_ionizer_Ionization_penalty_neutral>
0

$$$$
ZINC001211866343
                    3D
 Schrodinger Suite 2019-4.
 43 46  0  0  1  0            999 V2000
    4.5492   -2.5998   -2.3585 F   0  0  0  0  0  0
    4.6312   -1.7160   -1.3555 C   0  0  0  0  0  0
    5.8601   -1.4781   -0.7572 C   0  0  0  0  0  0
    5.9360   -0.5609    0.2859 C   0  0  0  0  0  0
    7.4558   -0.2490    1.0293 Cl  0  0  0  0  0  0
    4.7952    0.1109    0.7301 C   0  0  0  0  0  0
    3.5539   -0.1258    0.1171 C   0  0  0  0  0  0
    2.3535    0.5794    0.5475 C   0  0  0  0  0  0
    2.2449    1.2350    1.7144 N   0  0  0  0  0  0
    0.9431    1.7317    1.6944 O   0  0  0  0  0  0
    0.3932    1.3390    0.5073 C   0  0  0  0  0  0
   -1.0124    1.8056    0.2430 C   0  0  2  0  0  0
   -2.5965    2.6292   -1.4071 C   0  0  0  0  0  0
   -3.7032    1.7341   -0.8570 C   0  0  0  0  0  0
   -3.4882    1.4131    0.6231 C   0  0  0  0  0  0
   -2.0705    0.8763    0.9127 C   0  0  1  0  0  0
   -2.0149   -0.6249    0.6306 C   0  0  0  0  0  0
   -1.6101   -1.1652   -0.5963 C   0  0  0  0  0  0
   -1.6006   -2.5474   -0.8021 C   0  0  0  0  0  0
   -2.0016   -3.4125    0.2122 C   0  0  0  0  0  0
   -2.4224   -2.8952    1.4328 C   0  0  0  0  0  0
   -2.4270   -1.5140    1.6406 C   0  0  0  0  0  0
    1.2245    0.6437   -0.2377 N   0  0  0  0  0  0
    3.4847   -1.0512   -0.9324 C   0  0  0  0  0  0
    6.7392   -2.0070   -1.1093 H   0  0  0  0  0  0
    4.8793    0.8274    1.5453 H   0  0  0  0  0  0
   -1.0947    2.7887    0.7326 H   0  0  0  0  0  0
   -2.7534    2.7755   -2.4811 H   0  0  0  0  0  0
   -2.6494    3.6222   -0.9437 H   0  0  0  0  0  0
   -4.6730    2.2307   -0.9843 H   0  0  0  0  0  0
   -3.7514    0.8023   -1.4344 H   0  0  0  0  0  0
   -3.6361    2.3346    1.2008 H   0  0  0  0  0  0
   -4.2584    0.7095    0.9610 H   0  0  0  0  0  0
   -1.9072    0.9778    1.9977 H   0  0  0  0  0  0
   -1.2958   -0.5242   -1.4168 H   0  0  0  0  0  0
   -1.2817   -2.9478   -1.7618 H   0  0  0  0  0  0
   -1.9920   -4.4868    0.0504 H   0  0  0  0  0  0
   -2.7495   -3.5639    2.2247 H   0  0  0  0  0  0
   -2.7655   -1.1325    2.6015 H   0  0  0  0  0  0
    2.5409   -1.2626   -1.4288 H   0  0  0  0  0  0
   -1.2667    2.0396   -1.2058 N   0  3  0  0  0  0
   -0.5540    2.6801   -1.5747 H   0  0  0  0  0  0
   -1.2148    1.1447   -1.7067 H   0  0  0  0  0  0
  1  2  1  0  0  0
  2  3  2  0  0  0
  2 24  1  0  0  0
  3  4  1  0  0  0
  3 25  1  0  0  0
  4  5  1  0  0  0
  4  6  2  0  0  0
  6  7  1  0  0  0
  6 26  1  0  0  0
  7  8  1  0  0  0
  7 24  2  0  0  0
  8  9  2  0  0  0
  8 23  1  0  0  0
  9 10  1  0  0  0
 10 11  1  0  0  0
 11 12  1  0  0  0
 11 23  2  0  0  0
 12 16  1  0  0  0
 12 27  1  0  0  0
 12 41  1  0  0  0
 13 14  1  0  0  0
 13 28  1  0  0  0
 13 29  1  0  0  0
 13 41  1  0  0  0
 14 15  1  0  0  0
 14 30  1  0  0  0
 14 31  1  0  0  0
 15 16  1  0  0  0
 15 32  1  0  0  0
 15 33  1  0  0  0
 16 17  1  0  0  0
 16 34  1  0  0  0
 17 18  2  0  0  0
 17 22  1  0  0  0
 18 19  1  0  0  0
 18 35  1  0  0  0
 19 20  2  0  0  0
 19 36  1  0  0  0
 20 21  1  0  0  0
 20 37  1  0  0  0
 21 22  2  0  0  0
 21 38  1  0  0  0
 22 39  1  0  0  0
 24 40  1  0  0  0
 41 42  1  0  0  0
 41 43  1  0  0  0
M  CHG  1  41   1
M  END
> <energy>
65.904

> <i_ionizer_Ion_state_n>
1

> <i_ionizer_Tot_Q>
1

> <s_ionizer_Ion_centers>
41

> <s_ionizer_Ion_types>
N5

> <s_ionizer_Ion_ctrs_in>
13

> <r_ionizer_Ionization_penalty>
0.000148807

> <r_ionizer_Ionization_penalty_charging>
0.000148807

> <r_ionizer_Ionization_penalty_neutral>
0

$$$$
ZINC001211866344
                    3D
 Schrodinger Suite 2019-4.
 43 46  0  0  1  0            999 V2000
    6.6937   -2.4300   -0.8978 F   0  0  0  0  0  0
    5.6047   -2.3749   -0.1187 C   0  0  0  0  0  0
    5.6595   -2.8874    1.1693 C   0  0  0  0  0  0
    4.5184   -2.8346    1.9666 C   0  0  0  0  0  0
    4.5584   -3.5159    3.5486 Cl  0  0  0  0  0  0
    3.3406   -2.2481    1.4932 C   0  0  0  0  0  0
    3.2916   -1.7330    0.1898 C   0  0  0  0  0  0
    2.0941   -1.0850   -0.3241 C   0  0  0  0  0  0
    1.6839   -1.2069   -1.5954 N   0  0  0  0  0  0
    0.6313   -0.3007   -1.6895 O   0  0  0  0  0  0
    0.5138    0.2897   -0.4632 C   0  0  0  0  0  0
   -0.4154    1.4715   -0.3581 C   0  0  2  0  0  0
   -0.6927    3.7970   -1.0715 C   0  0  0  0  0  0
   -2.1003    3.5227   -1.5823 C   0  0  0  0  0  0
   -2.7555    2.3758   -0.8223 C   0  0  0  0  0  0
   -1.8604    1.1198   -0.8180 C   0  0  2  0  0  0
   -2.5437    0.0384    0.0065 C   0  0  0  0  0  0
   -2.5786    0.0918    1.4085 C   0  0  0  0  0  0
   -3.2320   -0.9004    2.1396 C   0  0  0  0  0  0
   -3.8653   -1.9545    1.4830 C   0  0  0  0  0  0
   -3.8638   -2.0045    0.0921 C   0  0  0  0  0  0
   -3.2089   -1.0146   -0.6410 C   0  0  0  0  0  0
    1.3643   -0.1890    0.4240 N   0  0  0  0  0  0
    4.4356   -1.8109   -0.6185 C   0  0  0  0  0  0
    6.5827   -3.3293    1.5310 H   0  0  0  0  0  0
    2.4605   -2.2017    2.1320 H   0  0  0  0  0  0
   -0.4183    1.7796    0.6941 H   0  0  0  0  0  0
   -0.7250    4.1810   -0.0438 H   0  0  0  0  0  0
   -0.2370    4.5801   -1.6876 H   0  0  0  0  0  0
   -2.0690    3.2822   -2.6552 H   0  0  0  0  0  0
   -2.7106    4.4273   -1.4758 H   0  0  0  0  0  0
   -3.7260    2.1475   -1.2794 H   0  0  0  0  0  0
   -2.9590    2.7032    0.2058 H   0  0  0  0  0  0
   -1.7940    0.7633   -1.8563 H   0  0  0  0  0  0
   -2.1100    0.9086    1.9525 H   0  0  0  0  0  0
   -3.2465   -0.8523    3.2251 H   0  0  0  0  0  0
   -4.3727   -2.7281    2.0549 H   0  0  0  0  0  0
   -4.3748   -2.8122   -0.4246 H   0  0  0  0  0  0
   -3.2231   -1.0690   -1.7264 H   0  0  0  0  0  0
    4.4352   -1.4170   -1.6307 H   0  0  0  0  0  0
    0.1583    2.6014   -1.1552 N   0  3  0  0  0  0
    1.0912    2.8284   -0.7913 H   0  0  0  0  0  0
    0.2350    2.3133   -2.1377 H   0  0  0  0  0  0
  1  2  1  0  0  0
  2  3  2  0  0  0
  2 24  1  0  0  0
  3  4  1  0  0  0
  3 25  1  0  0  0
  4  5  1  0  0  0
  4  6  2  0  0  0
  6  7  1  0  0  0
  6 26  1  0  0  0
  7  8  1  0  0  0
  7 24  2  0  0  0
  8  9  2  0  0  0
  8 23  1  0  0  0
  9 10  1  0  0  0
 10 11  1  0  0  0
 11 12  1  0  0  0
 11 23  2  0  0  0
 12 16  1  0  0  0
 12 27  1  0  0  0
 12 41  1  0  0  0
 13 14  1  0  0  0
 13 28  1  0  0  0
 13 29  1  0  0  0
 13 41  1  0  0  0
 14 15  1  0  0  0
 14 30  1  0  0  0
 14 31  1  0  0  0
 15 16  1  0  0  0
 15 32  1  0  0  0
 15 33  1  0  0  0
 16 17  1  0  0  0
 16 34  1  0  0  0
 17 18  2  0  0  0
 17 22  1  0  0  0
 18 19  1  0  0  0
 18 35  1  0  0  0
 19 20  2  0  0  0
 19 36  1  0  0  0
 20 21  1  0  0  0
 20 37  1  0  0  0
 21 22  2  0  0  0
 21 38  1  0  0  0
 22 39  1  0  0  0
 24 40  1  0  0  0
 41 42  1  0  0  0
 41 43  1  0  0  0
M  CHG  1  41   1
M  END
> <energy>
65.0438

> <i_ionizer_Ion_state_n>
1

> <i_ionizer_Tot_Q>
1

> <s_ionizer_Ion_centers>
41

> <s_ionizer_Ion_types>
N5

> <s_ionizer_Ion_ctrs_in>
13

> <r_ionizer_Ionization_penalty>
0.000148807

> <r_ionizer_Ionization_penalty_charging>
0.000148807

> <r_ionizer_Ionization_penalty_neutral>
0

$$$$
ZINC001211866355
                    3D
 Schrodinger Suite 2019-4.
 43 46  0  0  1  0            999 V2000
    1.2101   -0.4627    2.7808 O   0  0  0  0  0  0
    1.3206   -0.7293    1.5881 C   0  0  0  0  0  0
    0.3722   -1.6945    1.0025 C   0  0  0  0  0  0
   -0.5068   -1.2449    0.0103 C   0  0  0  0  0  0
   -1.4772   -2.1031   -0.5315 C   0  0  0  0  0  0
   -2.3495   -1.6590   -1.5623 N   0  0  0  0  0  0
   -3.0668   -0.5374   -1.3051 C   0  0  0  0  0  0
   -3.8827   -0.2780   -0.3057 N   0  0  0  0  0  0
   -4.1147    1.0663   -0.4119 C   0  0  0  0  0  0
   -4.8425    1.9389    0.4055 C   0  0  0  0  0  0
   -4.8176    3.2994    0.0814 C   0  0  0  0  0  0
   -5.6437    4.4176    1.0993 Cl  0  0  0  0  0  0
   -4.1219    3.7784   -1.0371 C   0  0  0  0  0  0
   -3.4232    2.9095   -1.8845 C   0  0  0  0  0  0
   -3.4451    1.5713   -1.5156 C   0  0  0  0  0  0
   -2.8006    0.5298   -2.1219 O   0  0  0  0  0  0
   -1.5318   -3.4288   -0.0900 C   0  0  0  0  0  0
   -0.6645   -3.8709    0.9163 C   0  0  0  0  0  0
    0.2766   -3.0001    1.4677 C   0  0  0  0  0  0
    1.0955   -3.4542    2.4266 F   0  0  0  0  0  0
    2.1995   -0.0790    0.7220 N   0  0  0  0  0  0
    2.6829   -0.6499   -0.5352 C   0  0  0  0  0  0
    4.2011   -0.8274   -0.4952 C   0  0  0  0  0  0
    4.9084    0.4729   -0.1109 C   0  0  0  0  0  0
    4.3546    1.0246    1.2020 C   0  0  0  0  0  0
    2.8370    1.1663    1.1395 C   0  0  0  0  0  0
   -0.4499   -0.2084   -0.3140 H   0  0  0  0  0  0
   -1.8001   -1.5446   -2.4118 H   0  0  0  0  0  0
   -5.3649    1.5650    1.2772 H   0  0  0  0  0  0
   -4.1146    4.8451   -1.2479 H   0  0  0  0  0  0
   -2.8759    3.2590   -2.7487 H   0  0  0  0  0  0
   -2.2760   -4.1093   -0.4963 H   0  0  0  0  0  0
   -0.7309   -4.8888    1.2886 H   0  0  0  0  0  0
    2.3946    0.0339   -1.3412 H   0  0  0  0  0  0
    2.2223   -1.6219   -0.7343 H   0  0  0  0  0  0
    4.5597   -1.1798   -1.4682 H   0  0  0  0  0  0
    4.4558   -1.6009    0.2400 H   0  0  0  0  0  0
    5.9870    0.3002   -0.0138 H   0  0  0  0  0  0
    4.7753    1.2159   -0.9071 H   0  0  0  0  0  0
    4.6254    0.3515    2.0238 H   0  0  0  0  0  0
    4.8141    1.9949    1.4198 H   0  0  0  0  0  0
    2.5624    1.9253    0.3961 H   0  0  0  0  0  0
    2.4454    1.5073    2.1027 H   0  0  0  0  0  0
  1  2  2  0  0  0
  2  3  1  0  0  0
  2 21  1  0  0  0
  3  4  2  0  0  0
  3 19  1  0  0  0
  4  5  1  0  0  0
  4 27  1  0  0  0
  5  6  1  0  0  0
  5 17  2  0  0  0
  6  7  1  0  0  0
  6 28  1  0  0  0
  7  8  2  0  0  0
  7 16  1  0  0  0
  8  9  1  0  0  0
  9 10  2  0  0  0
  9 15  1  0  0  0
 10 11  1  0  0  0
 10 29  1  0  0  0
 11 12  1  0  0  0
 11 13  2  0  0  0
 13 14  1  0  0  0
 13 30  1  0  0  0
 14 15  2  0  0  0
 14 31  1  0  0  0
 15 16  1  0  0  0
 17 18  1  0  0  0
 17 32  1  0  0  0
 18 19  2  0  0  0
 18 33  1  0  0  0
 19 20  1  0  0  0
 21 22  1  0  0  0
 21 26  1  0  0  0
 22 23  1  0  0  0
 22 34  1  0  0  0
 22 35  1  0  0  0
 23 24  1  0  0  0
 23 36  1  0  0  0
 23 37  1  0  0  0
 24 25  1  0  0  0
 24 38  1  0  0  0
 24 39  1  0  0  0
 25 26  1  0  0  0
 25 40  1  0  0  0
 25 41  1  0  0  0
 26 42  1  0  0  0
 26 43  1  0  0  0
M  END
> <energy>
-1.21192

> <i_ionizer_Ion_state_n>
0

> <i_ionizer_Tot_Q>
0

> <s_ionizer_Ion_centers>


> <s_ionizer_Ion_types>


> <s_ionizer_Ion_ctrs_in>


> <r_ionizer_Ionization_penalty>
0

> <r_ionizer_Ionization_penalty_charging>
0

> <r_ionizer_Ionization_penalty_neutral>
0

$$$$
ZINC001211866440
                    3D
 Schrodinger Suite 2019-4.
 41 43  0  0  1  0            999 V2000
    4.7988   -1.1316    0.4533 C   0  0  0  0  0  0
    3.6055   -0.3742    0.1099 N   0  0  0  0  0  0
    3.3193   -0.2335   -1.3089 C   0  0  0  0  0  0
    3.0648    0.4535    1.0918 C   0  0  0  0  0  0
    3.4267    0.4474    2.2677 O   0  0  0  0  0  0
    1.9699    1.3681    0.7423 C   0  0  0  0  0  0
    0.6729    0.8697    0.5862 C   0  0  0  0  0  0
   -0.3876    1.7545    0.3589 C   0  0  0  0  0  0
   -1.7215    1.2929    0.2315 N   0  0  0  0  0  0
   -2.1360    0.3017   -0.7187 C   0  0  0  0  0  0
   -1.8615    0.4334   -2.1062 C   0  0  0  0  0  0
   -0.9924    1.7754   -2.7731 Cl  0  0  0  0  0  0
   -2.3369   -0.4985   -3.0281 C   0  0  0  0  0  0
   -3.1083   -1.5555   -2.5849 C   0  0  0  0  0  0
   -3.5930   -2.4372   -3.4677 F   0  0  0  0  0  0
   -3.4044   -1.7082   -1.2383 C   0  0  0  0  0  0
   -2.9089   -0.8133   -0.2705 C   0  0  0  0  0  0
   -3.2196   -1.0639    1.1956 C   0  0  0  0  0  0
   -3.2662   -2.4748    1.7502 C   0  0  0  0  0  0
   -2.1278   -1.5756    2.1129 C   0  0  0  0  0  0
   -0.1412    3.1361    0.3721 C   0  0  0  0  0  0
    1.1582    3.6291    0.5229 C   0  0  0  0  0  0
    2.2126    2.7390    0.6996 C   0  0  0  0  0  0
    3.4555    3.2237    0.8193 F   0  0  0  0  0  0
    4.8708   -1.2990    1.5311 H   0  0  0  0  0  0
    4.7717   -2.1033   -0.0480 H   0  0  0  0  0  0
    5.6794   -0.5706    0.1258 H   0  0  0  0  0  0
    2.2754    0.0360   -1.4797 H   0  0  0  0  0  0
    3.5159   -1.1822   -1.8176 H   0  0  0  0  0  0
    3.9616    0.5491   -1.7210 H   0  0  0  0  0  0
    0.4968   -0.2003    0.6487 H   0  0  0  0  0  0
   -2.0479    1.0384    1.1625 H   0  0  0  0  0  0
   -2.1299   -0.3992   -4.0866 H   0  0  0  0  0  0
   -4.0258   -2.5503   -0.9408 H   0  0  0  0  0  0
   -3.9460   -0.3780    1.6301 H   0  0  0  0  0  0
   -3.0428   -3.3204    1.1106 H   0  0  0  0  0  0
   -4.0053   -2.6933    2.5124 H   0  0  0  0  0  0
   -2.0856   -1.1974    3.1285 H   0  0  0  0  0  0
   -1.1538   -1.8184    1.7013 H   0  0  0  0  0  0
   -0.9658    3.8340    0.2293 H   0  0  0  0  0  0
    1.3523    4.6967    0.4956 H   0  0  0  0  0  0
  1  2  1  0  0  0
  1 25  1  0  0  0
  1 26  1  0  0  0
  1 27  1  0  0  0
  2  3  1  0  0  0
  2  4  1  0  0  0
  3 28  1  0  0  0
  3 29  1  0  0  0
  3 30  1  0  0  0
  4  5  2  0  0  0
  4  6  1  0  0  0
  6  7  2  0  0  0
  6 23  1  0  0  0
  7  8  1  0  0  0
  7 31  1  0  0  0
  8  9  1  0  0  0
  8 21  2  0  0  0
  9 10  1  0  0  0
  9 32  1  0  0  0
 10 11  2  0  0  0
 10 17  1  0  0  0
 11 12  1  0  0  0
 11 13  1  0  0  0
 13 14  2  0  0  0
 13 33  1  0  0  0
 14 15  1  0  0  0
 14 16  1  0  0  0
 16 17  2  0  0  0
 16 34  1  0  0  0
 17 18  1  0  0  0
 18 19  1  0  0  0
 18 20  1  0  0  0
 18 35  1  0  0  0
 19 20  1  0  0  0
 19 36  1  0  0  0
 19 37  1  0  0  0
 20 38  1  0  0  0
 20 39  1  0  0  0
 21 22  1  0  0  0
 21 40  1  0  0  0
 22 23  2  0  0  0
 22 41  1  0  0  0
 23 24  1  0  0  0
M  END
> <energy>
53.8911

> <i_ionizer_Ion_state_n>
0

> <i_ionizer_Tot_Q>
0

> <s_ionizer_Ion_centers>


> <s_ionizer_Ion_types>


> <s_ionizer_Ion_ctrs_in>


> <r_ionizer_Ionization_penalty>
0

> <r_ionizer_Ionization_penalty_charging>
0

> <r_ionizer_Ionization_penalty_neutral>
0

$$$$
ZINC001211866449
                    3D
 Schrodinger Suite 2019-4.
 46 49  0  0  1  0            999 V2000
   -5.9577   -0.6163    1.2765 F   0  0  0  0  0  0
   -4.6650   -0.1737    1.2771 C   0  0  0  0  0  0
   -3.9116   -1.2988    1.1361 F   0  0  0  0  0  0
   -4.4476    0.2861    2.5380 F   0  0  0  0  0  0
   -4.4140    0.8670    0.2132 C   0  0  0  0  0  0
   -5.5143    1.4946   -0.4076 C   0  0  0  0  0  0
   -5.3258    2.4413   -1.4139 C   0  0  0  0  0  0
   -4.0369    2.7724   -1.8179 C   0  0  0  0  0  0
   -2.9350    2.1656   -1.2103 C   0  0  0  0  0  0
   -3.1099    1.2223   -0.1825 C   0  0  0  0  0  0
   -1.9305    0.6076    0.4100 C   0  0  0  0  0  0
   -1.6805    0.5756    1.7280 N   0  0  0  0  0  0
   -0.5194   -0.1968    1.8202 O   0  0  0  0  0  0
   -0.1824   -0.5451    0.5441 C   0  0  0  0  0  0
    0.9809   -1.4903    0.3710 C   0  0  2  0  0  0
    1.5504   -3.6849   -0.5732 C   0  0  0  0  0  0
    2.5519   -3.0670   -1.5414 C   0  0  0  0  0  0
    3.1726   -1.8151   -0.9434 C   0  0  0  0  0  0
    2.0902   -0.8147   -0.4848 C   0  0  2  0  0  0
    2.7470    0.3566    0.2329 C   0  0  0  0  0  0
    3.5604    0.1731    1.3628 C   0  0  0  0  0  0
    4.2009    1.2594    1.9603 C   0  0  0  0  0  0
    4.0188    2.5422    1.4494 C   0  0  0  0  0  0
    3.1900    2.7416    0.3481 C   0  0  0  0  0  0
    2.5576    1.6559   -0.2570 C   0  0  0  0  0  0
   -0.9942   -0.0324   -0.3606 N   0  0  0  0  0  0
   -6.5338    1.2361   -0.1143 H   0  0  0  0  0  0
   -6.1841    2.9115   -1.8852 H   0  0  0  0  0  0
   -3.8873    3.5077   -2.6063 H   0  0  0  0  0  0
   -1.9330    2.4331   -1.5425 H   0  0  0  0  0  0
    1.3813   -1.7381    1.3634 H   0  0  0  0  0  0
    1.1091   -4.5702   -1.0426 H   0  0  0  0  0  0
    2.0562   -4.0268    0.3365 H   0  0  0  0  0  0
    3.3400   -3.7922   -1.7766 H   0  0  0  0  0  0
    2.0569   -2.8174   -2.4895 H   0  0  0  0  0  0
    3.8142   -2.1174   -0.1054 H   0  0  0  0  0  0
    3.8281   -1.3403   -1.6839 H   0  0  0  0  0  0
    1.6183   -0.4353   -1.4034 H   0  0  0  0  0  0
    3.7203   -0.8163    1.7849 H   0  0  0  0  0  0
    4.8420    1.1052    2.8242 H   0  0  0  0  0  0
    4.5272    3.3871    1.9058 H   0  0  0  0  0  0
    3.0378    3.7425   -0.0465 H   0  0  0  0  0  0
    1.9145    1.8300   -1.1179 H   0  0  0  0  0  0
    0.4618   -2.7493   -0.2537 N   0  3  0  0  0  0
   -0.1861   -3.2034    0.4006 H   0  0  0  0  0  0
   -0.0369   -2.5109   -1.1190 H   0  0  0  0  0  0
  1  2  1  0  0  0
  2  3  1  0  0  0
  2  4  1  0  0  0
  2  5  1  0  0  0
  5  6  2  0  0  0
  5 10  1  0  0  0
  6  7  1  0  0  0
  6 27  1  0  0  0
  7  8  2  0  0  0
  7 28  1  0  0  0
  8  9  1  0  0  0
  8 29  1  0  0  0
  9 10  2  0  0  0
  9 30  1  0  0  0
 10 11  1  0  0  0
 11 12  2  0  0  0
 11 26  1  0  0  0
 12 13  1  0  0  0
 13 14  1  0  0  0
 14 15  1  0  0  0
 14 26  2  0  0  0
 15 19  1  0  0  0
 15 31  1  0  0  0
 15 44  1  0  0  0
 16 17  1  0  0  0
 16 32  1  0  0  0
 16 33  1  0  0  0
 16 44  1  0  0  0
 17 18  1  0  0  0
 17 34  1  0  0  0
 17 35  1  0  0  0
 18 19  1  0  0  0
 18 36  1  0  0  0
 18 37  1  0  0  0
 19 20  1  0  0  0
 19 38  1  0  0  0
 20 21  2  0  0  0
 20 25  1  0  0  0
 21 22  1  0  0  0
 21 39  1  0  0  0
 22 23  2  0  0  0
 22 40  1  0  0  0
 23 24  1  0  0  0
 23 41  1  0  0  0
 24 25  2  0  0  0
 24 42  1  0  0  0
 25 43  1  0  0  0
 44 45  1  0  0  0
 44 46  1  0  0  0
M  CHG  1  44   1
M  END
> <energy>
95.9356

> <i_ionizer_Ion_state_n>
1

> <i_ionizer_Tot_Q>
1

> <s_ionizer_Ion_centers>
44

> <s_ionizer_Ion_types>
N5

> <s_ionizer_Ion_ctrs_in>
16

> <r_ionizer_Ionization_penalty>
0.000148807

> <r_ionizer_Ionization_penalty_charging>
0.000148807

> <r_ionizer_Ionization_penalty_neutral>
0

$$$$
ZINC001211866452
                    3D
 Schrodinger Suite 2019-4.
 46 49  0  0  1  0            999 V2000
   -1.8565    2.5779    0.8513 F   0  0  0  0  0  0
   -3.2039    2.4541    0.7154 C   0  0  0  0  0  0
   -3.6723    3.7408    0.7273 F   0  0  0  0  0  0
   -3.6795    1.9001    1.8628 F   0  0  0  0  0  0
   -3.6223    1.7051   -0.5296 C   0  0  0  0  0  0
   -4.6194    2.2742   -1.3532 C   0  0  0  0  0  0
   -5.0244    1.6532   -2.5345 C   0  0  0  0  0  0
   -4.4415    0.4522   -2.9173 C   0  0  0  0  0  0
   -3.4619   -0.1314   -2.1122 C   0  0  0  0  0  0
   -3.0476    0.4748   -0.9095 C   0  0  0  0  0  0
   -2.0202   -0.2078   -0.1252 C   0  0  0  0  0  0
   -1.9805   -0.2312    1.2139 N   0  0  0  0  0  0
   -0.8021   -0.9217    1.4990 O   0  0  0  0  0  0
   -0.2713   -1.2938    0.2979 C   0  0  0  0  0  0
    1.0521   -2.0098    0.2901 C   0  0  1  0  0  0
    2.6222   -3.4575    1.4911 C   0  0  0  0  0  0
    3.5227   -3.1781    0.2832 C   0  0  0  0  0  0
    3.5962   -1.6875   -0.0229 C   0  0  0  0  0  0
    2.1881   -1.0905   -0.2681 C   0  0  2  0  0  0
    2.1230    0.3628    0.1890 C   0  0  0  0  0  0
    2.3269    0.7223    1.5298 C   0  0  0  0  0  0
    2.2211    2.0546    1.9330 C   0  0  0  0  0  0
    1.8991    3.0422    1.0056 C   0  0  0  0  0  0
    1.6836    2.6997   -0.3266 C   0  0  0  0  0  0
    1.7984    1.3700   -0.7340 C   0  0  0  0  0  0
   -1.0103   -0.9259   -0.7278 N   0  0  0  0  0  0
   -5.0843    3.2206   -1.0758 H   0  0  0  0  0  0
   -5.7878    2.1132   -3.1571 H   0  0  0  0  0  0
   -4.7505   -0.0365   -3.8387 H   0  0  0  0  0  0
   -3.0197   -1.0748   -2.4285 H   0  0  0  0  0  0
    0.9176   -2.8426   -0.4160 H   0  0  0  0  0  0
    3.1967   -3.3201    2.4143 H   0  0  0  0  0  0
    2.3252   -4.5121    1.4673 H   0  0  0  0  0  0
    3.1389   -3.7083   -0.5981 H   0  0  0  0  0  0
    4.5284   -3.5716    0.4745 H   0  0  0  0  0  0
    4.1137   -1.1887    0.8053 H   0  0  0  0  0  0
    4.2229   -1.5189   -0.9078 H   0  0  0  0  0  0
    2.0513   -1.0890   -1.3601 H   0  0  0  0  0  0
    2.5534   -0.0355    2.2770 H   0  0  0  0  0  0
    2.3741    2.3177    2.9760 H   0  0  0  0  0  0
    1.8044    4.0759    1.3233 H   0  0  0  0  0  0
    1.4130    3.4657   -1.0473 H   0  0  0  0  0  0
    1.6060    1.1236   -1.7756 H   0  0  0  0  0  0
    1.4167   -2.6104    1.6032 N   0  3  0  0  0  0
    1.5992   -1.8568    2.2763 H   0  0  0  0  0  0
    0.6341   -3.1852    1.9367 H   0  0  0  0  0  0
  1  2  1  0  0  0
  2  3  1  0  0  0
  2  4  1  0  0  0
  2  5  1  0  0  0
  5  6  2  0  0  0
  5 10  1  0  0  0
  6  7  1  0  0  0
  6 27  1  0  0  0
  7  8  2  0  0  0
  7 28  1  0  0  0
  8  9  1  0  0  0
  8 29  1  0  0  0
  9 10  2  0  0  0
  9 30  1  0  0  0
 10 11  1  0  0  0
 11 12  2  0  0  0
 11 26  1  0  0  0
 12 13  1  0  0  0
 13 14  1  0  0  0
 14 15  1  0  0  0
 14 26  2  0  0  0
 15 19  1  0  0  0
 15 31  1  0  0  0
 15 44  1  0  0  0
 16 17  1  0  0  0
 16 32  1  0  0  0
 16 33  1  0  0  0
 16 44  1  0  0  0
 17 18  1  0  0  0
 17 34  1  0  0  0
 17 35  1  0  0  0
 18 19  1  0  0  0
 18 36  1  0  0  0
 18 37  1  0  0  0
 19 20  1  0  0  0
 19 38  1  0  0  0
 20 21  2  0  0  0
 20 25  1  0  0  0
 21 22  1  0  0  0
 21 39  1  0  0  0
 22 23  2  0  0  0
 22 40  1  0  0  0
 23 24  1  0  0  0
 23 41  1  0  0  0
 24 25  2  0  0  0
 24 42  1  0  0  0
 25 43  1  0  0  0
 44 45  1  0  0  0
 44 46  1  0  0  0
M  CHG  1  44   1
M  END
> <energy>
105.5

> <i_ionizer_Ion_state_n>
1

> <i_ionizer_Tot_Q>
1

> <s_ionizer_Ion_centers>
44

> <s_ionizer_Ion_types>
N5

> <s_ionizer_Ion_ctrs_in>
16

> <r_ionizer_Ionization_penalty>
0.000148807

> <r_ionizer_Ionization_penalty_charging>
0.000148807

> <r_ionizer_Ionization_penalty_neutral>
0

$$$$
ZINC001211866454
                    3D
 Schrodinger Suite 2019-4.
 46 49  0  0  1  0            999 V2000
   -2.2361    0.8496   -2.1687 F   0  0  0  0  0  0
   -3.2955    0.0434   -1.8864 C   0  0  0  0  0  0
   -4.1785    0.2662   -2.9100 F   0  0  0  0  0  0
   -2.8892   -1.2441   -2.0692 F   0  0  0  0  0  0
   -3.9152    0.3024   -0.5301 C   0  0  0  0  0  0
   -5.1613    0.9666   -0.4792 C   0  0  0  0  0  0
   -5.8050    1.2084    0.7339 C   0  0  0  0  0  0
   -5.2182    0.7970    1.9224 C   0  0  0  0  0  0
   -3.9800    0.1547    1.8958 C   0  0  0  0  0  0
   -3.3065   -0.0935    0.6817 C   0  0  0  0  0  0
   -1.9875   -0.7223    0.7370 C   0  0  0  0  0  0
   -1.5393   -1.4380    1.7813 N   0  0  0  0  0  0
   -0.2319   -1.7706    1.4211 O   0  0  0  0  0  0
   -0.0202   -1.2132    0.1940 C   0  0  0  0  0  0
    1.3348   -1.3742   -0.4354 C   0  0  1  0  0  0
    2.9195   -2.9737   -1.4000 C   0  0  0  0  0  0
    3.8638   -1.7691   -1.3673 C   0  0  0  0  0  0
    3.8581   -1.0931   -0.0020 C   0  0  0  0  0  0
    2.4308   -0.7066    0.4473 C   0  0  1  0  0  0
    2.2690    0.8083    0.5187 C   0  0  0  0  0  0
    2.3051    1.6148   -0.6299 C   0  0  0  0  0  0
    2.1095    2.9949   -0.5356 C   0  0  0  0  0  0
    1.8849    3.5866    0.7058 C   0  0  0  0  0  0
    1.8642    2.8009    1.8554 C   0  0  0  0  0  0
    2.0559    1.4217    1.7634 C   0  0  0  0  0  0
   -1.0714   -0.5794   -0.2715 N   0  0  0  0  0  0
   -5.6431    1.2965   -1.4002 H   0  0  0  0  0  0
   -6.7661    1.7163    0.7476 H   0  0  0  0  0  0
   -5.7137    0.9848    2.8722 H   0  0  0  0  0  0
   -3.5303   -0.1374    2.8438 H   0  0  0  0  0  0
    1.2719   -0.8762   -1.4127 H   0  0  0  0  0  0
    3.4250   -3.8420   -0.9622 H   0  0  0  0  0  0
    2.7148   -3.2280   -2.4471 H   0  0  0  0  0  0
    3.5682   -1.0445   -2.1353 H   0  0  0  0  0  0
    4.8804   -2.0926   -1.6174 H   0  0  0  0  0  0
    4.5373   -0.2324   -0.0066 H   0  0  0  0  0  0
    4.2742   -1.7996    0.7289 H   0  0  0  0  0  0
    2.3236   -1.0940    1.4716 H   0  0  0  0  0  0
    2.4744    1.1824   -1.6131 H   0  0  0  0  0  0
    2.1259    3.6088   -1.4323 H   0  0  0  0  0  0
    1.7222    4.6582    0.7775 H   0  0  0  0  0  0
    1.6910    3.2588    2.8254 H   0  0  0  0  0  0
    2.0267    0.8262    2.6739 H   0  0  0  0  0  0
    1.6437   -2.8116   -0.6729 N   0  3  0  0  0  0
    1.7107   -3.2932    0.2314 H   0  0  0  0  0  0
    0.8873   -3.2290   -1.2277 H   0  0  0  0  0  0
  1  2  1  0  0  0
  2  3  1  0  0  0
  2  4  1  0  0  0
  2  5  1  0  0  0
  5  6  2  0  0  0
  5 10  1  0  0  0
  6  7  1  0  0  0
  6 27  1  0  0  0
  7  8  2  0  0  0
  7 28  1  0  0  0
  8  9  1  0  0  0
  8 29  1  0  0  0
  9 10  2  0  0  0
  9 30  1  0  0  0
 10 11  1  0  0  0
 11 12  2  0  0  0
 11 26  1  0  0  0
 12 13  1  0  0  0
 13 14  1  0  0  0
 14 15  1  0  0  0
 14 26  2  0  0  0
 15 19  1  0  0  0
 15 31  1  0  0  0
 15 44  1  0  0  0
 16 17  1  0  0  0
 16 32  1  0  0  0
 16 33  1  0  0  0
 16 44  1  0  0  0
 17 18  1  0  0  0
 17 34  1  0  0  0
 17 35  1  0  0  0
 18 19  1  0  0  0
 18 36  1  0  0  0
 18 37  1  0  0  0
 19 20  1  0  0  0
 19 38  1  0  0  0
 20 21  2  0  0  0
 20 25  1  0  0  0
 21 22  1  0  0  0
 21 39  1  0  0  0
 22 23  2  0  0  0
 22 40  1  0  0  0
 23 24  1  0  0  0
 23 41  1  0  0  0
 24 25  2  0  0  0
 24 42  1  0  0  0
 25 43  1  0  0  0
 44 45  1  0  0  0
 44 46  1  0  0  0
M  CHG  1  44   1
M  END
> <energy>
99.4211

> <i_ionizer_Ion_state_n>
1

> <i_ionizer_Tot_Q>
1

> <s_ionizer_Ion_centers>
44

> <s_ionizer_Ion_types>
N5

> <s_ionizer_Ion_ctrs_in>
16

> <r_ionizer_Ionization_penalty>
0.000148807

> <r_ionizer_Ionization_penalty_charging>
0.000148807

> <r_ionizer_Ionization_penalty_neutral>
0

$$$$
ZINC001211866455
                    3D
 Schrodinger Suite 2019-4.
 43 45  0  0  1  0            999 V2000
    3.5517   -1.1737    1.5714 O   0  0  0  0  0  0
    2.7256   -0.8336    0.7299 C   0  0  0  0  0  0
    1.9370   -1.8890    0.0662 C   0  0  0  0  0  0
    0.5502   -1.9330    0.2812 C   0  0  0  0  0  0
   -0.2466   -2.8615   -0.3933 C   0  0  0  0  0  0
   -1.6646   -2.9203   -0.2461 N   0  0  0  0  0  0
   -2.4743   -1.7864   -0.0295 C   0  0  0  0  0  0
   -2.5129   -1.1210    1.1941 C   0  0  0  0  0  0
   -3.2406    0.0653    1.3054 C   0  0  0  0  0  0
   -3.9245    0.5603    0.1928 C   0  0  0  0  0  0
   -4.6387    1.8754    0.1873 C   0  0  0  0  0  0
   -5.0090    2.3009    1.4267 F   0  0  0  0  0  0
   -5.7792    1.8573   -0.5570 F   0  0  0  0  0  0
   -3.8725    2.8732   -0.3350 F   0  0  0  0  0  0
   -3.8673   -0.1937   -0.9687 C   0  0  0  0  0  0
   -3.1800   -1.3542   -1.0961 N   0  0  0  0  0  0
    0.3951   -3.8189   -1.1989 C   0  0  0  0  0  0
    1.7835   -3.7945   -1.3889 C   0  0  0  0  0  0
    2.5500   -2.8232   -0.7544 C   0  0  0  0  0  0
    3.8695   -2.7850   -0.9868 F   0  0  0  0  0  0
    2.4211    0.4958    0.4148 N   0  0  0  0  0  0
    1.6454    0.8924   -0.7647 C   0  0  0  0  0  0
    1.8014    2.3694   -1.1135 C   0  0  0  0  0  0
    1.5233    3.2787    0.0833 C   0  0  0  0  0  0
    2.0657    2.7184    1.4011 C   0  0  0  0  0  0
    3.0427    1.5629    1.1925 C   0  0  0  0  0  0
    0.1187   -1.1983    0.9512 H   0  0  0  0  0  0
   -2.0402   -3.2876   -1.1228 H   0  0  0  0  0  0
   -1.9725   -1.5148    2.0495 H   0  0  0  0  0  0
   -3.2582    0.6015    2.2543 H   0  0  0  0  0  0
   -4.3813    0.1297   -1.8719 H   0  0  0  0  0  0
   -0.1868   -4.5789   -1.7154 H   0  0  0  0  0  0
    2.2659   -4.5196   -2.0338 H   0  0  0  0  0  0
    1.9567    0.2739   -1.6148 H   0  0  0  0  0  0
    0.5912    0.6763   -0.5653 H   0  0  0  0  0  0
    2.8254    2.5479   -1.4609 H   0  0  0  0  0  0
    1.1429    2.6322   -1.9492 H   0  0  0  0  0  0
    1.9665    4.2630   -0.1088 H   0  0  0  0  0  0
    0.4430    3.4486    0.1790 H   0  0  0  0  0  0
    1.2209    2.3644    2.0086 H   0  0  0  0  0  0
    2.5435    3.5191    1.9771 H   0  0  0  0  0  0
    3.3795    1.1820    2.1618 H   0  0  0  0  0  0
    3.9325    1.8985    0.6479 H   0  0  0  0  0  0
  1  2  2  0  0  0
  2  3  1  0  0  0
  2 21  1  0  0  0
  3  4  2  0  0  0
  3 19  1  0  0  0
  4  5  1  0  0  0
  4 27  1  0  0  0
  5  6  1  0  0  0
  5 17  2  0  0  0
  6  7  1  0  0  0
  6 28  1  0  0  0
  7  8  2  0  0  0
  7 16  1  0  0  0
  8  9  1  0  0  0
  8 29  1  0  0  0
  9 10  2  0  0  0
  9 30  1  0  0  0
 10 11  1  0  0  0
 10 15  1  0  0  0
 11 12  1  0  0  0
 11 13  1  0  0  0
 11 14  1  0  0  0
 15 16  2  0  0  0
 15 31  1  0  0  0
 17 18  1  0  0  0
 17 32  1  0  0  0
 18 19  2  0  0  0
 18 33  1  0  0  0
 19 20  1  0  0  0
 21 22  1  0  0  0
 21 26  1  0  0  0
 22 23  1  0  0  0
 22 34  1  0  0  0
 22 35  1  0  0  0
 23 24  1  0  0  0
 23 36  1  0  0  0
 23 37  1  0  0  0
 24 25  1  0  0  0
 24 38  1  0  0  0
 24 39  1  0  0  0
 25 26  1  0  0  0
 25 40  1  0  0  0
 25 41  1  0  0  0
 26 42  1  0  0  0
 26 43  1  0  0  0
M  END
> <energy>
13.6212

> <i_ionizer_Ion_state_n>
0

> <i_ionizer_Tot_Q>
0

> <s_ionizer_Ion_centers>


> <s_ionizer_Ion_types>


> <s_ionizer_Ion_ctrs_in>


> <r_ionizer_Ionization_penalty>
0.00741239

> <r_ionizer_Ionization_penalty_charging>
0

> <r_ionizer_Ionization_penalty_neutral>
0.00741239

$$$$
ZINC001211866456
                    3D
 Schrodinger Suite 2019-4.
 46 49  0  0  1  0            999 V2000
   -3.3437    1.3027   -3.1272 F   0  0  0  0  0  0
   -2.8443    0.8016   -1.9526 C   0  0  0  0  0  0
   -2.5193   -0.4880   -2.2385 F   0  0  0  0  0  0
   -1.6785    1.4811   -1.7651 F   0  0  0  0  0  0
   -3.8220    0.9507   -0.8095 C   0  0  0  0  0  0
   -5.1664    1.2648   -1.1113 C   0  0  0  0  0  0
   -6.1147    1.4347   -0.1047 C   0  0  0  0  0  0
   -5.7377    1.3142    1.2257 C   0  0  0  0  0  0
   -4.4143    1.0038    1.5447 C   0  0  0  0  0  0
   -3.4454    0.7946    0.5401 C   0  0  0  0  0  0
   -2.1014    0.3759    0.9420 C   0  0  0  0  0  0
   -1.5458    0.6931    2.1232 N   0  0  0  0  0  0
   -0.3498   -0.0191    2.1314 O   0  0  0  0  0  0
   -0.2856   -0.6948    0.9448 C   0  0  0  0  0  0
    0.8816   -1.6346    0.7746 C   0  0  2  0  0  0
    1.9059   -3.3686   -0.6104 C   0  0  0  0  0  0
    3.2747   -2.7050   -0.5186 C   0  0  0  0  0  0
    3.4202   -1.9251    0.7853 C   0  0  0  0  0  0
    2.2531   -0.9459    1.0380 C   0  0  1  0  0  0
    2.5402    0.3970    0.3749 C   0  0  0  0  0  0
    3.0228    1.4479    1.1767 C   0  0  0  0  0  0
    3.3831    2.6785    0.6260 C   0  0  0  0  0  0
    3.2639    2.8825   -0.7441 C   0  0  0  0  0  0
    2.7837    1.8573   -1.5537 C   0  0  0  0  0  0
    2.4233    0.6232   -1.0025 C   0  0  0  0  0  0
   -1.3314   -0.4679    0.1750 N   0  0  0  0  0  0
   -5.4852    1.3726   -2.1480 H   0  0  0  0  0  0
   -7.1472    1.6648   -0.3586 H   0  0  0  0  0  0
   -6.4710    1.4476    2.0164 H   0  0  0  0  0  0
   -4.1436    0.9067    2.5959 H   0  0  0  0  0  0
    0.7525   -2.3784    1.5752 H   0  0  0  0  0  0
    1.8179   -3.8901   -1.5709 H   0  0  0  0  0  0
    1.8119   -4.1388    0.1662 H   0  0  0  0  0  0
    3.4380   -2.0500   -1.3804 H   0  0  0  0  0  0
    4.0560   -3.4732   -0.5657 H   0  0  0  0  0  0
    3.4436   -2.6477    1.6103 H   0  0  0  0  0  0
    4.3886   -1.4094    0.7963 H   0  0  0  0  0  0
    2.2688   -0.7493    2.1223 H   0  0  0  0  0  0
    3.1434    1.3111    2.2497 H   0  0  0  0  0  0
    3.7627    3.4701    1.2660 H   0  0  0  0  0  0
    3.5461    3.8370   -1.1777 H   0  0  0  0  0  0
    2.7057    2.0123   -2.6281 H   0  0  0  0  0  0
    2.0722   -0.1475   -1.6790 H   0  0  0  0  0  0
    0.7929   -2.4130   -0.4952 N   0  3  0  0  0  0
   -0.0947   -2.9289   -0.5110 H   0  0  0  0  0  0
    0.8254   -1.7634   -1.2897 H   0  0  0  0  0  0
  1  2  1  0  0  0
  2  3  1  0  0  0
  2  4  1  0  0  0
  2  5  1  0  0  0
  5  6  2  0  0  0
  5 10  1  0  0  0
  6  7  1  0  0  0
  6 27  1  0  0  0
  7  8  2  0  0  0
  7 28  1  0  0  0
  8  9  1  0  0  0
  8 29  1  0  0  0
  9 10  2  0  0  0
  9 30  1  0  0  0
 10 11  1  0  0  0
 11 12  2  0  0  0
 11 26  1  0  0  0
 12 13  1  0  0  0
 13 14  1  0  0  0
 14 15  1  0  0  0
 14 26  2  0  0  0
 15 19  1  0  0  0
 15 31  1  0  0  0
 15 44  1  0  0  0
 16 17  1  0  0  0
 16 32  1  0  0  0
 16 33  1  0  0  0
 16 44  1  0  0  0
 17 18  1  0  0  0
 17 34  1  0  0  0
 17 35  1  0  0  0
 18 19  1  0  0  0
 18 36  1  0  0  0
 18 37  1  0  0  0
 19 20  1  0  0  0
 19 38  1  0  0  0
 20 21  2  0  0  0
 20 25  1  0  0  0
 21 22  1  0  0  0
 21 39  1  0  0  0
 22 23  2  0  0  0
 22 40  1  0  0  0
 23 24  1  0  0  0
 23 41  1  0  0  0
 24 25  2  0  0  0
 24 42  1  0  0  0
 25 43  1  0  0  0
 44 45  1  0  0  0
 44 46  1  0  0  0
M  CHG  1  44   1
M  END
> <energy>
100.035

> <i_ionizer_Ion_state_n>
1

> <i_ionizer_Tot_Q>
1

> <s_ionizer_Ion_centers>
44

> <s_ionizer_Ion_types>
N5

> <s_ionizer_Ion_ctrs_in>
16

> <r_ionizer_Ionization_penalty>
0.000148807

> <r_ionizer_Ionization_penalty_charging>
0.000148807

> <r_ionizer_Ionization_penalty_neutral>
0

$$$$
ZINC001211866479
                    3D
 Schrodinger Suite 2019-4.
 43 46  0  0  1  0            999 V2000
    7.3438   -1.2661    0.0277 F   0  0  0  0  0  0
    6.0653   -1.3343   -0.3566 C   0  0  0  0  0  0
    5.3794   -0.1779   -0.6876 C   0  0  0  0  0  0
    4.0256   -0.2549   -1.0385 C   0  0  0  0  0  0
    3.3451   -1.4939   -1.0575 C   0  0  0  0  0  0
    1.8965   -1.4949   -1.2810 C   0  0  0  0  0  0
    1.1876   -2.4746   -1.8670 N   0  0  0  0  0  0
   -0.1430   -2.0683   -1.7200 O   0  0  0  0  0  0
   -0.1124   -0.8557   -1.0970 C   0  0  0  0  0  0
   -1.4071   -0.1269   -0.8248 C   0  0  2  0  0  0
   -3.2131   -1.8230   -0.5825 C   0  0  0  0  0  0
   -2.7746   -1.8927    0.8778 C   0  0  0  0  0  0
   -2.6076   -0.5014    1.4569 C   0  0  0  0  0  0
   -1.5163    0.2652    0.6875 C   0  0  2  0  0  0
   -1.7017    1.7658    0.8466 C   0  0  0  0  0  0
   -2.8556    2.4070    0.3716 C   0  0  0  0  0  0
   -2.9911    3.7874    0.4624 C   0  0  0  0  0  0
   -1.9741    4.5476    1.0346 C   0  0  0  0  0  0
   -0.8249    3.9248    1.5228 C   0  0  0  0  0  0
   -0.6896    2.5396    1.4318 C   0  0  0  0  0  0
    1.1122   -0.4475   -0.8362 N   0  0  0  0  0  0
    4.0818   -2.6561   -0.7521 C   0  0  0  0  0  0
    3.3949   -4.2429   -0.7070 Cl  0  0  0  0  0  0
    5.4344   -2.5689   -0.4018 C   0  0  0  0  0  0
    5.8953    0.7779   -0.6499 H   0  0  0  0  0  0
    3.4956    0.6694   -1.2695 H   0  0  0  0  0  0
   -1.2731    0.7930   -1.4120 H   0  0  0  0  0  0
   -4.3053   -1.7126   -0.6106 H   0  0  0  0  0  0
   -3.0045   -2.7825   -1.0688 H   0  0  0  0  0  0
   -1.8275   -2.4402    0.9633 H   0  0  0  0  0  0
   -3.5220   -2.4481    1.4560 H   0  0  0  0  0  0
   -3.5761    0.0127    1.4227 H   0  0  0  0  0  0
   -2.3377   -0.5580    2.5172 H   0  0  0  0  0  0
   -0.5724   -0.0062    1.1843 H   0  0  0  0  0  0
   -3.6632    1.8326   -0.0763 H   0  0  0  0  0  0
   -3.8903    4.2679    0.0851 H   0  0  0  0  0  0
   -2.0801    5.6270    1.1026 H   0  0  0  0  0  0
   -0.0349    4.5222    1.9709 H   0  0  0  0  0  0
    0.2151    2.0751    1.8189 H   0  0  0  0  0  0
    5.9966   -3.4599   -0.1355 H   0  0  0  0  0  0
   -2.6555   -0.7233   -1.4128 N   0  3  0  0  0  0
   -3.3637    0.0152   -1.4978 H   0  0  0  0  0  0
   -2.4348   -1.0948   -2.3442 H   0  0  0  0  0  0
  1  2  1  0  0  0
  2  3  2  0  0  0
  2 24  1  0  0  0
  3  4  1  0  0  0
  3 25  1  0  0  0
  4  5  2  0  0  0
  4 26  1  0  0  0
  5  6  1  0  0  0
  5 22  1  0  0  0
  6  7  2  0  0  0
  6 21  1  0  0  0
  7  8  1  0  0  0
  8  9  1  0  0  0
  9 10  1  0  0  0
  9 21  2  0  0  0
 10 14  1  0  0  0
 10 27  1  0  0  0
 10 41  1  0  0  0
 11 12  1  0  0  0
 11 28  1  0  0  0
 11 29  1  0  0  0
 11 41  1  0  0  0
 12 13  1  0  0  0
 12 30  1  0  0  0
 12 31  1  0  0  0
 13 14  1  0  0  0
 13 32  1  0  0  0
 13 33  1  0  0  0
 14 15  1  0  0  0
 14 34  1  0  0  0
 15 16  2  0  0  0
 15 20  1  0  0  0
 16 17  1  0  0  0
 16 35  1  0  0  0
 17 18  2  0  0  0
 17 36  1  0  0  0
 18 19  1  0  0  0
 18 37  1  0  0  0
 19 20  2  0  0  0
 19 38  1  0  0  0
 20 39  1  0  0  0
 22 23  1  0  0  0
 22 24  2  0  0  0
 24 40  1  0  0  0
 41 42  1  0  0  0
 41 43  1  0  0  0
M  CHG  1  41   1
M  END
> <energy>
94.6154

> <i_ionizer_Ion_state_n>
1

> <i_ionizer_Tot_Q>
1

> <s_ionizer_Ion_centers>
41

> <s_ionizer_Ion_types>
N5

> <s_ionizer_Ion_ctrs_in>
11

> <r_ionizer_Ionization_penalty>
0.000148807

> <r_ionizer_Ionization_penalty_charging>
0.000148807

> <r_ionizer_Ionization_penalty_neutral>
0

$$$$
ZINC001211866482
                    3D
 Schrodinger Suite 2019-4.
 43 46  0  0  1  0            999 V2000
    2.9826   -3.9829    5.0724 F   0  0  0  0  0  0
    2.6203   -3.0230    4.2126 C   0  0  0  0  0  0
    2.6971   -1.6913    4.6050 C   0  0  0  0  0  0
    2.3133   -0.6903    3.7103 C   0  0  0  0  0  0
    1.8442   -1.0229    2.4264 C   0  0  0  0  0  0
    1.3834    0.0491    1.5632 C   0  0  0  0  0  0
    2.1458    1.1040    1.2378 N   0  0  0  0  0  0
    1.2861    1.9025    0.4865 O   0  0  0  0  0  0
    0.0794    1.2609    0.4555 C   0  0  0  0  0  0
   -1.0142    1.9611   -0.3052 C   0  0  1  0  0  0
   -3.0623    1.3641    0.9362 C   0  0  0  0  0  0
   -3.6524    0.6719   -0.2899 C   0  0  0  0  0  0
   -2.5413    0.0657   -1.1359 C   0  0  0  0  0  0
   -1.5263    1.1542   -1.5339 C   0  0  2  0  0  0
   -0.4089    0.6604   -2.4424 C   0  0  0  0  0  0
    0.1368    1.5418   -3.3871 C   0  0  0  0  0  0
    1.1698    1.1318   -4.2299 C   0  0  0  0  0  0
    1.6767   -0.1616   -4.1362 C   0  0  0  0  0  0
    1.1503   -1.0467   -3.1989 C   0  0  0  0  0  0
    0.1161   -0.6364   -2.3569 C   0  0  0  0  0  0
    0.0894    0.1117    1.1001 N   0  0  0  0  0  0
    1.8075   -2.3710    2.0400 C   0  0  0  0  0  0
    1.3304   -2.8767    0.4584 Cl  0  0  0  0  0  0
    2.1878   -3.3737    2.9384 C   0  0  0  0  0  0
    3.0480   -1.4390    5.6015 H   0  0  0  0  0  0
    2.3605    0.3528    4.0245 H   0  0  0  0  0  0
   -0.5566    2.8825   -0.6959 H   0  0  0  0  0  0
   -3.8744    1.8100    1.5210 H   0  0  0  0  0  0
   -2.5727    0.6297    1.5866 H   0  0  0  0  0  0
   -4.2377    1.3871   -0.8877 H   0  0  0  0  0  0
   -4.3480   -0.1144    0.0240 H   0  0  0  0  0  0
   -2.0637   -0.7314   -0.5586 H   0  0  0  0  0  0
   -2.9717   -0.4014   -2.0310 H   0  0  0  0  0  0
   -2.1098    1.8613   -2.1422 H   0  0  0  0  0  0
   -0.2454    2.5556   -3.4819 H   0  0  0  0  0  0
    1.5792    1.8224   -4.9621 H   0  0  0  0  0  0
    2.4797   -0.4829   -4.7947 H   0  0  0  0  0  0
    1.5443   -2.0563   -3.1210 H   0  0  0  0  0  0
   -0.2615   -1.3518   -1.6300 H   0  0  0  0  0  0
    2.1633   -4.4209    2.6573 H   0  0  0  0  0  0
   -2.1210    2.4548    0.5854 N   0  3  0  0  0  0
   -1.7120    2.8329    1.4480 H   0  0  0  0  0  0
   -2.6366    3.1965    0.0973 H   0  0  0  0  0  0
  1  2  1  0  0  0
  2  3  2  0  0  0
  2 24  1  0  0  0
  3  4  1  0  0  0
  3 25  1  0  0  0
  4  5  2  0  0  0
  4 26  1  0  0  0
  5  6  1  0  0  0
  5 22  1  0  0  0
  6  7  2  0  0  0
  6 21  1  0  0  0
  7  8  1  0  0  0
  8  9  1  0  0  0
  9 10  1  0  0  0
  9 21  2  0  0  0
 10 14  1  0  0  0
 10 27  1  0  0  0
 10 41  1  0  0  0
 11 12  1  0  0  0
 11 28  1  0  0  0
 11 29  1  0  0  0
 11 41  1  0  0  0
 12 13  1  0  0  0
 12 30  1  0  0  0
 12 31  1  0  0  0
 13 14  1  0  0  0
 13 32  1  0  0  0
 13 33  1  0  0  0
 14 15  1  0  0  0
 14 34  1  0  0  0
 15 16  2  0  0  0
 15 20  1  0  0  0
 16 17  1  0  0  0
 16 35  1  0  0  0
 17 18  2  0  0  0
 17 36  1  0  0  0
 18 19  1  0  0  0
 18 37  1  0  0  0
 19 20  2  0  0  0
 19 38  1  0  0  0
 20 39  1  0  0  0
 22 23  1  0  0  0
 22 24  2  0  0  0
 24 40  1  0  0  0
 41 42  1  0  0  0
 41 43  1  0  0  0
M  CHG  1  41   1
M  END
> <energy>
82.8055

> <i_ionizer_Ion_state_n>
1

> <i_ionizer_Tot_Q>
1

> <s_ionizer_Ion_centers>
41

> <s_ionizer_Ion_types>
N5

> <s_ionizer_Ion_ctrs_in>
11

> <r_ionizer_Ionization_penalty>
0.000148807

> <r_ionizer_Ionization_penalty_charging>
0.000148807

> <r_ionizer_Ionization_penalty_neutral>
0

$$$$
ZINC001211866483
                    3D
 Schrodinger Suite 2019-4.
 43 46  0  0  1  0            999 V2000
    7.1113   -2.3929   -0.6630 F   0  0  0  0  0  0
    5.9762   -1.7195   -0.4389 C   0  0  0  0  0  0
    5.1455   -2.1076    0.6061 C   0  0  0  0  0  0
    3.9569   -1.4108    0.8295 C   0  0  0  0  0  0
    3.6040   -0.3215    0.0121 C   0  0  0  0  0  0
    2.3415    0.3493    0.2472 C   0  0  0  0  0  0
    2.0291    0.9438    1.4069 N   0  0  0  0  0  0
    0.7290    1.4027    1.1950 O   0  0  0  0  0  0
    0.3759    1.0035   -0.0621 C   0  0  0  0  0  0
   -1.0098    1.3353   -0.5387 C   0  0  1  0  0  0
   -2.3966    3.0929   -1.5313 C   0  0  0  0  0  0
   -3.5188    2.0901   -1.2573 C   0  0  0  0  0  0
   -3.4721    1.5787    0.1789 C   0  0  0  0  0  0
   -2.0857    0.9905    0.5352 C   0  0  1  0  0  0
   -2.1684   -0.5080    0.8007 C   0  0  0  0  0  0
   -2.5031   -1.4182   -0.2141 C   0  0  0  0  0  0
   -2.5169   -2.7912    0.0377 C   0  0  0  0  0  0
   -2.2114   -3.2711    1.3085 C   0  0  0  0  0  0
   -1.8972   -2.3801    2.3306 C   0  0  0  0  0  0
   -1.8769   -1.0066    2.0807 C   0  0  0  0  0  0
    1.3380    0.3640   -0.6923 N   0  0  0  0  0  0
    4.4692    0.0657   -1.0238 C   0  0  0  0  0  0
    4.1567    1.4368   -2.0338 Cl  0  0  0  0  0  0
    5.6545   -0.6395   -1.2521 C   0  0  0  0  0  0
    5.4248   -2.9504    1.2323 H   0  0  0  0  0  0
    3.2999   -1.7274    1.6385 H   0  0  0  0  0  0
   -1.1671    0.7338   -1.4456 H   0  0  0  0  0  0
   -2.6864    4.0830   -1.1615 H   0  0  0  0  0  0
   -2.2718    3.1912   -2.6158 H   0  0  0  0  0  0
   -3.4374    1.2433   -1.9489 H   0  0  0  0  0  0
   -4.4884    2.5607   -1.4546 H   0  0  0  0  0  0
   -4.2824    0.8614    0.3484 H   0  0  0  0  0  0
   -3.6789    2.4251    0.8497 H   0  0  0  0  0  0
   -1.7931    1.4738    1.4775 H   0  0  0  0  0  0
   -2.7527   -1.0721   -1.2151 H   0  0  0  0  0  0
   -2.7621   -3.4867   -0.7607 H   0  0  0  0  0  0
   -2.2202   -4.3402    1.5036 H   0  0  0  0  0  0
   -1.6613   -2.7508    3.3249 H   0  0  0  0  0  0
   -1.6231   -0.3289    2.8936 H   0  0  0  0  0  0
    6.3300   -0.3551   -2.0535 H   0  0  0  0  0  0
   -1.0926    2.7720   -0.9151 N   0  3  0  0  0  0
   -0.9710    3.3459   -0.0725 H   0  0  0  0  0  0
   -0.3447    2.9856   -1.5855 H   0  0  0  0  0  0
  1  2  1  0  0  0
  2  3  2  0  0  0
  2 24  1  0  0  0
  3  4  1  0  0  0
  3 25  1  0  0  0
  4  5  2  0  0  0
  4 26  1  0  0  0
  5  6  1  0  0  0
  5 22  1  0  0  0
  6  7  2  0  0  0
  6 21  1  0  0  0
  7  8  1  0  0  0
  8  9  1  0  0  0
  9 10  1  0  0  0
  9 21  2  0  0  0
 10 14  1  0  0  0
 10 27  1  0  0  0
 10 41  1  0  0  0
 11 12  1  0  0  0
 11 28  1  0  0  0
 11 29  1  0  0  0
 11 41  1  0  0  0
 12 13  1  0  0  0
 12 30  1  0  0  0
 12 31  1  0  0  0
 13 14  1  0  0  0
 13 32  1  0  0  0
 13 33  1  0  0  0
 14 15  1  0  0  0
 14 34  1  0  0  0
 15 16  2  0  0  0
 15 20  1  0  0  0
 16 17  1  0  0  0
 16 35  1  0  0  0
 17 18  2  0  0  0
 17 36  1  0  0  0
 18 19  1  0  0  0
 18 37  1  0  0  0
 19 20  2  0  0  0
 19 38  1  0  0  0
 20 39  1  0  0  0
 22 23  1  0  0  0
 22 24  2  0  0  0
 24 40  1  0  0  0
 41 42  1  0  0  0
 41 43  1  0  0  0
M  CHG  1  41   1
M  END
> <energy>
86.5713

> <i_ionizer_Ion_state_n>
1

> <i_ionizer_Tot_Q>
1

> <s_ionizer_Ion_centers>
41

> <s_ionizer_Ion_types>
N5

> <s_ionizer_Ion_ctrs_in>
11

> <r_ionizer_Ionization_penalty>
0.000148807

> <r_ionizer_Ionization_penalty_charging>
0.000148807

> <r_ionizer_Ionization_penalty_neutral>
0

$$$$
ZINC001211866486
                    3D
 Schrodinger Suite 2019-4.
 43 46  0  0  1  0            999 V2000
    6.9942    0.0458    1.1077 F   0  0  0  0  0  0
    5.7644   -0.0262    0.5827 C   0  0  0  0  0  0
    4.8189    0.9344    0.9230 C   0  0  0  0  0  0
    3.5355    0.8578    0.3781 C   0  0  0  0  0  0
    3.2065   -0.1762   -0.5152 C   0  0  0  0  0  0
    1.8665   -0.2275   -1.0585 C   0  0  0  0  0  0
    1.5454    0.2314   -2.2768 N   0  0  0  0  0  0
    0.1772   -0.0280   -2.3672 O   0  0  0  0  0  0
   -0.1888   -0.6032   -1.1830 C   0  0  0  0  0  0
   -1.6319   -1.0026   -1.0524 C   0  0  2  0  0  0
   -2.6948   -2.9909   -0.0577 C   0  0  0  0  0  0
   -2.3579   -2.5325    1.3617 C   0  0  0  0  0  0
   -2.0311   -1.0376    1.4637 C   0  0  0  0  0  0
   -2.3343   -0.2986    0.1490 C   0  0  1  0  0  0
   -2.1271    1.2102    0.1811 C   0  0  0  0  0  0
   -1.1704    1.8247    1.0017 C   0  0  0  0  0  0
   -1.0057    3.2115    0.9906 C   0  0  0  0  0  0
   -1.7889    4.0030    0.1555 C   0  0  0  0  0  0
   -2.7355    3.4087   -0.6741 C   0  0  0  0  0  0
   -2.9027    2.0230   -0.6631 C   0  0  0  0  0  0
    0.8116   -0.7235   -0.3343 N   0  0  0  0  0  0
    4.1757   -1.1363   -0.8456 C   0  0  0  0  0  0
    3.8478   -2.4507   -1.9210 Cl  0  0  0  0  0  0
    5.4569   -1.0605   -0.2928 C   0  0  0  0  0  0
    5.0863    1.7332    1.6081 H   0  0  0  0  0  0
    2.7915    1.6060    0.6471 H   0  0  0  0  0  0
   -2.1529   -0.6716   -1.9619 H   0  0  0  0  0  0
   -2.6878   -4.0855   -0.0867 H   0  0  0  0  0  0
   -3.7091   -2.6817   -0.3357 H   0  0  0  0  0  0
   -1.5046   -3.1062    1.7445 H   0  0  0  0  0  0
   -3.2023   -2.7675    2.0206 H   0  0  0  0  0  0
   -2.5980   -0.5921    2.2910 H   0  0  0  0  0  0
   -0.9736   -0.9384    1.7340 H   0  0  0  0  0  0
   -3.4199   -0.4244    0.0026 H   0  0  0  0  0  0
   -0.5286    1.2355    1.6523 H   0  0  0  0  0  0
   -0.2616    3.6722    1.6350 H   0  0  0  0  0  0
   -1.6598    5.0815    0.1493 H   0  0  0  0  0  0
   -3.3446    4.0237   -1.3306 H   0  0  0  0  0  0
   -3.6487    1.5822   -1.3212 H   0  0  0  0  0  0
    6.2164   -1.7982   -0.5337 H   0  0  0  0  0  0
   -1.7121   -2.5014   -1.0359 N   0  3  0  0  0  0
   -1.9836   -2.8292   -1.9703 H   0  0  0  0  0  0
   -0.7886   -2.8802   -0.7953 H   0  0  0  0  0  0
  1  2  1  0  0  0
  2  3  2  0  0  0
  2 24  1  0  0  0
  3  4  1  0  0  0
  3 25  1  0  0  0
  4  5  2  0  0  0
  4 26  1  0  0  0
  5  6  1  0  0  0
  5 22  1  0  0  0
  6  7  2  0  0  0
  6 21  1  0  0  0
  7  8  1  0  0  0
  8  9  1  0  0  0
  9 10  1  0  0  0
  9 21  2  0  0  0
 10 14  1  0  0  0
 10 27  1  0  0  0
 10 41  1  0  0  0
 11 12  1  0  0  0
 11 28  1  0  0  0
 11 29  1  0  0  0
 11 41  1  0  0  0
 12 13  1  0  0  0
 12 30  1  0  0  0
 12 31  1  0  0  0
 13 14  1  0  0  0
 13 32  1  0  0  0
 13 33  1  0  0  0
 14 15  1  0  0  0
 14 34  1  0  0  0
 15 16  2  0  0  0
 15 20  1  0  0  0
 16 17  1  0  0  0
 16 35  1  0  0  0
 17 18  2  0  0  0
 17 36  1  0  0  0
 18 19  1  0  0  0
 18 37  1  0  0  0
 19 20  2  0  0  0
 19 38  1  0  0  0
 20 39  1  0  0  0
 22 23  1  0  0  0
 22 24  2  0  0  0
 24 40  1  0  0  0
 41 42  1  0  0  0
 41 43  1  0  0  0
M  CHG  1  41   1
M  END
> <energy>
89.5506

> <i_ionizer_Ion_state_n>
1

> <i_ionizer_Tot_Q>
1

> <s_ionizer_Ion_centers>
41

> <s_ionizer_Ion_types>
N5

> <s_ionizer_Ion_ctrs_in>
11

> <r_ionizer_Ionization_penalty>
0.000148807

> <r_ionizer_Ionization_penalty_charging>
0.000148807

> <r_ionizer_Ionization_penalty_neutral>
0

$$$$
ZINC001211866495
                    3D
 Schrodinger Suite 2019-4.
 40 41  0  0  1  0            999 V2000
   -1.7392    1.5748    2.1867 C   0  0  0  0  0  0
   -2.9945    1.1195    1.4540 C   0  0  0  0  0  0
   -2.8223    1.1374   -0.0489 C   0  0  0  0  0  0
   -3.2350    2.2738   -0.7630 C   0  0  0  0  0  0
   -3.1093    2.3316   -2.1512 C   0  0  0  0  0  0
   -2.5603    1.2565   -2.8411 C   0  0  0  0  0  0
   -2.4392    1.3182   -4.7271 Br  0  0  0  0  0  0
   -2.1225    0.1299   -2.1510 C   0  0  0  0  0  0
   -2.2292    0.0674   -0.7492 C   0  0  0  0  0  0
   -1.8441   -1.1192   -0.0651 N   0  0  0  0  0  0
   -0.5579   -1.7073   -0.1828 C   0  0  0  0  0  0
   -0.3887   -3.0850    0.0223 C   0  0  0  0  0  0
    0.8837   -3.6654   -0.0427 C   0  0  0  0  0  0
    1.9979   -2.8649   -0.2835 C   0  0  0  0  0  0
    3.2081   -3.4375   -0.3211 F   0  0  0  0  0  0
    1.8443   -1.4932   -0.4294 C   0  0  0  0  0  0
    3.0078   -0.6241   -0.6429 C   0  0  0  0  0  0
    3.4902   -0.5915   -1.7739 O   0  0  0  0  0  0
    3.4345    0.1742    0.4187 N   0  0  0  0  0  0
    4.4330    1.2008    0.1676 C   0  0  0  0  0  0
    2.9852    0.0267    1.7989 C   0  0  0  0  0  0
    0.5767   -0.9110   -0.3769 C   0  0  0  0  0  0
   -0.9133    0.8727    2.0369 H   0  0  0  0  0  0
   -1.9250    1.6445    3.2628 H   0  0  0  0  0  0
   -1.4106    2.5611    1.8415 H   0  0  0  0  0  0
   -3.2885    0.1191    1.7936 H   0  0  0  0  0  0
   -3.8275    1.7760    1.7300 H   0  0  0  0  0  0
   -3.6693    3.1199   -0.2368 H   0  0  0  0  0  0
   -3.4574    3.2137   -2.6839 H   0  0  0  0  0  0
   -1.7036   -0.7091   -2.6984 H   0  0  0  0  0  0
   -2.5729   -1.8198   -0.2021 H   0  0  0  0  0  0
   -1.2498   -3.7212    0.2234 H   0  0  0  0  0  0
    1.0102   -4.7345    0.0952 H   0  0  0  0  0  0
    5.3722    0.9029    0.6425 H   0  0  0  0  0  0
    4.0903    2.1420    0.6058 H   0  0  0  0  0  0
    4.6067    1.3600   -0.9004 H   0  0  0  0  0  0
    2.4087   -0.8865    1.9554 H   0  0  0  0  0  0
    3.8599   -0.0090    2.4530 H   0  0  0  0  0  0
    2.3678    0.8897    2.0622 H   0  0  0  0  0  0
    0.4831    0.1669   -0.4791 H   0  0  0  0  0  0
  1  2  1  0  0  0
  1 23  1  0  0  0
  1 24  1  0  0  0
  1 25  1  0  0  0
  2  3  1  0  0  0
  2 26  1  0  0  0
  2 27  1  0  0  0
  3  4  2  0  0  0
  3  9  1  0  0  0
  4  5  1  0  0  0
  4 28  1  0  0  0
  5  6  2  0  0  0
  5 29  1  0  0  0
  6  7  1  0  0  0
  6  8  1  0  0  0
  8  9  2  0  0  0
  8 30  1  0  0  0
  9 10  1  0  0  0
 10 11  1  0  0  0
 10 31  1  0  0  0
 11 12  2  0  0  0
 11 22  1  0  0  0
 12 13  1  0  0  0
 12 32  1  0  0  0
 13 14  2  0  0  0
 13 33  1  0  0  0
 14 15  1  0  0  0
 14 16  1  0  0  0
 16 17  1  0  0  0
 16 22  2  0  0  0
 17 18  2  0  0  0
 17 19  1  0  0  0
 19 20  1  0  0  0
 19 21  1  0  0  0
 20 34  1  0  0  0
 20 35  1  0  0  0
 20 36  1  0  0  0
 21 37  1  0  0  0
 21 38  1  0  0  0
 21 39  1  0  0  0
 22 40  1  0  0  0
M  END
> <energy>
29.1872

> <i_ionizer_Ion_state_n>
0

> <i_ionizer_Tot_Q>
0

> <s_ionizer_Ion_centers>


> <s_ionizer_Ion_types>


> <s_ionizer_Ion_ctrs_in>


> <r_ionizer_Ionization_penalty>
0

> <r_ionizer_Ionization_penalty_charging>
0

> <r_ionizer_Ionization_penalty_neutral>
0

$$$$
ZINC001211866529
                    3D
 Schrodinger Suite 2019-4.
 46 49  0  0  1  0            999 V2000
   -4.7832    1.1995    0.8212 C   0  0  0  0  0  0
   -4.5993   -0.0389   -0.0209 C   0  0  0  0  0  0
   -5.7018   -0.7931   -0.4770 C   0  0  0  0  0  0
   -7.3367   -0.3907   -0.0679 Cl  0  0  0  0  0  0
   -5.5229   -1.9275   -1.2776 C   0  0  0  0  0  0
   -4.2453   -2.3537   -1.6158 C   0  0  0  0  0  0
   -3.1442   -1.6424   -1.1488 C   0  0  0  0  0  0
   -3.2990   -0.4937   -0.3506 C   0  0  0  0  0  0
   -2.0725    0.1720    0.0789 C   0  0  0  0  0  0
   -1.8385    0.6320    1.3171 N   0  0  0  0  0  0
   -0.5251    1.1029    1.2514 O   0  0  0  0  0  0
   -0.0891    0.8592   -0.0198 C   0  0  0  0  0  0
    1.3132    1.2637   -0.3895 C   0  0  2  0  0  0
    2.6877    3.1620   -1.1350 C   0  0  0  0  0  0
    3.8313    2.1781   -0.8817 C   0  0  0  0  0  0
    3.7141    1.5553    0.5021 C   0  0  0  0  0  0
    2.3412    0.8711    0.7103 C   0  0  2  0  0  0
    2.5037   -0.6413    0.8316 C   0  0  0  0  0  0
    2.9677   -1.4236   -0.2381 C   0  0  0  0  0  0
    3.0985   -2.8073   -0.1044 C   0  0  0  0  0  0
    2.7711   -3.4264    1.1000 C   0  0  0  0  0  0
    2.3179   -2.6622    2.1713 C   0  0  0  0  0  0
    2.1817   -1.2781    2.0391 C   0  0  0  0  0  0
   -1.0029    0.3021   -0.7811 N   0  0  0  0  0  0
   -5.7768    1.6474    0.7194 H   0  0  0  0  0  0
   -4.6206    0.9557    1.8758 H   0  0  0  0  0  0
   -4.0837    1.9856    0.5150 H   0  0  0  0  0  0
   -6.3803   -2.4937   -1.6330 H   0  0  0  0  0  0
   -4.0992   -3.2383   -2.2303 H   0  0  0  0  0  0
   -2.1445   -1.9913   -1.4029 H   0  0  0  0  0  0
    1.5392    0.7296   -1.3223 H   0  0  0  0  0  0
    2.8976    4.1042   -0.6176 H   0  0  0  0  0  0
    2.6548    3.3976   -2.2045 H   0  0  0  0  0  0
    3.8284    1.3940   -1.6486 H   0  0  0  0  0  0
    4.7904    2.6983   -0.9743 H   0  0  0  0  0  0
    4.5493    0.8697    0.6797 H   0  0  0  0  0  0
    3.8266    2.3544    1.2474 H   0  0  0  0  0  0
    1.9737    1.2424    1.6768 H   0  0  0  0  0  0
    3.2349   -0.9704   -1.1896 H   0  0  0  0  0  0
    3.4501   -3.4049   -0.9400 H   0  0  0  0  0  0
    2.8686   -4.5037    1.2048 H   0  0  0  0  0  0
    2.0627   -3.1400    3.1126 H   0  0  0  0  0  0
    1.8145   -0.7027    2.8861 H   0  0  0  0  0  0
    1.3503    2.7268   -0.6785 N   0  3  0  0  0  0
    0.6636    2.9385   -1.4118 H   0  0  0  0  0  0
    1.1074    3.2409    0.1765 H   0  0  0  0  0  0
  1  2  1  0  0  0
  1 25  1  0  0  0
  1 26  1  0  0  0
  1 27  1  0  0  0
  2  3  2  0  0  0
  2  8  1  0  0  0
  3  4  1  0  0  0
  3  5  1  0  0  0
  5  6  2  0  0  0
  5 28  1  0  0  0
  6  7  1  0  0  0
  6 29  1  0  0  0
  7  8  2  0  0  0
  7 30  1  0  0  0
  8  9  1  0  0  0
  9 10  2  0  0  0
  9 24  1  0  0  0
 10 11  1  0  0  0
 11 12  1  0  0  0
 12 13  1  0  0  0
 12 24  2  0  0  0
 13 17  1  0  0  0
 13 31  1  0  0  0
 13 44  1  0  0  0
 14 15  1  0  0  0
 14 32  1  0  0  0
 14 33  1  0  0  0
 14 44  1  0  0  0
 15 16  1  0  0  0
 15 34  1  0  0  0
 15 35  1  0  0  0
 16 17  1  0  0  0
 16 36  1  0  0  0
 16 37  1  0  0  0
 17 18  1  0  0  0
 17 38  1  0  0  0
 18 19  2  0  0  0
 18 23  1  0  0  0
 19 20  1  0  0  0
 19 39  1  0  0  0
 20 21  2  0  0  0
 20 40  1  0  0  0
 21 22  1  0  0  0
 21 41  1  0  0  0
 22 23  2  0  0  0
 22 42  1  0  0  0
 23 43  1  0  0  0
 44 45  1  0  0  0
 44 46  1  0  0  0
M  CHG  1  44   1
M  END
> <energy>
96.3628

> <i_ionizer_Ion_state_n>
1

> <i_ionizer_Tot_Q>
1

> <s_ionizer_Ion_centers>
44

> <s_ionizer_Ion_types>
N5

> <s_ionizer_Ion_ctrs_in>
14

> <r_ionizer_Ionization_penalty>
0.000148807

> <r_ionizer_Ionization_penalty_charging>
0.000148807

> <r_ionizer_Ionization_penalty_neutral>
0

$$$$
ZINC001211866530
                    3D
 Schrodinger Suite 2019-4.
 46 49  0  0  1  0            999 V2000
   -4.3756   -0.0970    0.5101 C   0  0  0  0  0  0
   -4.2237   -0.9491   -0.7250 C   0  0  0  0  0  0
   -5.2496   -1.8158   -1.1497 C   0  0  0  0  0  0
   -6.7286   -1.9919   -0.2688 Cl  0  0  0  0  0  0
   -5.1137   -2.5800   -2.3160 C   0  0  0  0  0  0
   -3.9527   -2.4998   -3.0781 C   0  0  0  0  0  0
   -2.9091   -1.6776   -2.6559 C   0  0  0  0  0  0
   -3.0243   -0.9182   -1.4760 C   0  0  0  0  0  0
   -1.8741   -0.1353   -1.0445 C   0  0  0  0  0  0
   -1.2738    0.7810   -1.8166 N   0  0  0  0  0  0
   -0.2504    1.2700   -1.0078 O   0  0  0  0  0  0
   -0.3090    0.5706    0.1635 C   0  0  0  0  0  0
    0.7327    0.8499    1.2188 C   0  0  1  0  0  0
    1.0850    1.8309    3.4271 C   0  0  0  0  0  0
    2.5561    1.5332    3.1270 C   0  0  0  0  0  0
    2.9526    2.0491    1.7486 C   0  0  0  0  0  0
    2.0413    1.4661    0.6401 C   0  0  1  0  0  0
    2.8076    0.4719   -0.2225 C   0  0  0  0  0  0
    3.3629   -0.6995    0.3132 C   0  0  0  0  0  0
    4.0275   -1.6118   -0.5076 C   0  0  0  0  0  0
    4.1474   -1.3633   -1.8716 C   0  0  0  0  0  0
    3.6117   -0.1987   -2.4149 C   0  0  0  0  0  0
    2.9512    0.7160   -1.5961 C   0  0  0  0  0  0
   -1.3064   -0.2855    0.2015 N   0  0  0  0  0  0
   -3.9790   -0.6227    1.3841 H   0  0  0  0  0  0
   -5.4191    0.1732    0.6976 H   0  0  0  0  0  0
   -3.8538    0.8596    0.3989 H   0  0  0  0  0  0
   -5.9181   -3.2392   -2.6380 H   0  0  0  0  0  0
   -3.8529   -3.0820   -3.9912 H   0  0  0  0  0  0
   -1.9941   -1.6405   -3.2449 H   0  0  0  0  0  0
    0.9473   -0.1255    1.6801 H   0  0  0  0  0  0
    0.9910    2.8423    3.8355 H   0  0  0  0  0  0
    0.7426    1.1444    4.2104 H   0  0  0  0  0  0
    3.1919    1.9861    3.8947 H   0  0  0  0  0  0
    2.7283    0.4504    3.1792 H   0  0  0  0  0  0
    4.0127    1.8442    1.5587 H   0  0  0  0  0  0
    2.8562    3.1436    1.7494 H   0  0  0  0  0  0
    1.7748    2.3213    0.0034 H   0  0  0  0  0  0
    3.2825   -0.9252    1.3731 H   0  0  0  0  0  0
    4.4437   -2.5229   -0.0828 H   0  0  0  0  0  0
    4.6580   -2.0759   -2.5133 H   0  0  0  0  0  0
    3.6970   -0.0029   -3.4805 H   0  0  0  0  0  0
    2.5316    1.6156   -2.0424 H   0  0  0  0  0  0
    0.1786    1.7505    2.2648 N   0  3  0  0  0  0
    0.0561    2.6899    1.8688 H   0  0  0  0  0  0
   -0.7312    1.3877    2.5729 H   0  0  0  0  0  0
  1  2  1  0  0  0
  1 25  1  0  0  0
  1 26  1  0  0  0
  1 27  1  0  0  0
  2  3  2  0  0  0
  2  8  1  0  0  0
  3  4  1  0  0  0
  3  5  1  0  0  0
  5  6  2  0  0  0
  5 28  1  0  0  0
  6  7  1  0  0  0
  6 29  1  0  0  0
  7  8  2  0  0  0
  7 30  1  0  0  0
  8  9  1  0  0  0
  9 10  2  0  0  0
  9 24  1  0  0  0
 10 11  1  0  0  0
 11 12  1  0  0  0
 12 13  1  0  0  0
 12 24  2  0  0  0
 13 17  1  0  0  0
 13 31  1  0  0  0
 13 44  1  0  0  0
 14 15  1  0  0  0
 14 32  1  0  0  0
 14 33  1  0  0  0
 14 44  1  0  0  0
 15 16  1  0  0  0
 15 34  1  0  0  0
 15 35  1  0  0  0
 16 17  1  0  0  0
 16 36  1  0  0  0
 16 37  1  0  0  0
 17 18  1  0  0  0
 17 38  1  0  0  0
 18 19  2  0  0  0
 18 23  1  0  0  0
 19 20  1  0  0  0
 19 39  1  0  0  0
 20 21  2  0  0  0
 20 40  1  0  0  0
 21 22  1  0  0  0
 21 41  1  0  0  0
 22 23  2  0  0  0
 22 42  1  0  0  0
 23 43  1  0  0  0
 44 45  1  0  0  0
 44 46  1  0  0  0
M  CHG  1  44   1
M  END
> <energy>
96.6215

> <i_ionizer_Ion_state_n>
1

> <i_ionizer_Tot_Q>
1

> <s_ionizer_Ion_centers>
44

> <s_ionizer_Ion_types>
N5

> <s_ionizer_Ion_ctrs_in>
14

> <r_ionizer_Ionization_penalty>
0.000148807

> <r_ionizer_Ionization_penalty_charging>
0.000148807

> <r_ionizer_Ionization_penalty_neutral>
0

$$$$
ZINC001211866531
                    3D
 Schrodinger Suite 2019-4.
 46 49  0  0  1  0            999 V2000
   -2.2970    1.7608    0.2641 C   0  0  0  0  0  0
   -2.9259    1.3957   -1.0579 C   0  0  0  0  0  0
   -3.6449    2.3627   -1.7967 C   0  0  0  0  0  0
   -3.7751    4.0109   -1.2743 Cl  0  0  0  0  0  0
   -4.2721    2.0424   -3.0050 C   0  0  0  0  0  0
   -4.1861    0.7536   -3.5108 C   0  0  0  0  0  0
   -3.4431   -0.2047   -2.8213 C   0  0  0  0  0  0
   -2.7806    0.1006   -1.6096 C   0  0  0  0  0  0
   -1.9279   -0.9409   -1.0170 C   0  0  0  0  0  0
   -2.0611   -2.2443   -1.3124 N   0  0  0  0  0  0
   -0.9849   -2.8452   -0.6732 O   0  0  0  0  0  0
   -0.2900   -1.8520   -0.0405 C   0  0  0  0  0  0
    0.9341   -2.3110    0.7017 C   0  0  1  0  0  0
    0.8909   -1.7441    3.0673 C   0  0  0  0  0  0
    2.3876   -1.4405    3.1527 C   0  0  0  0  0  0
    3.1233   -1.5933    1.8181 C   0  0  0  0  0  0
    2.2198   -1.4258    0.5739 C   0  0  2  0  0  0
    2.1303    0.0322    0.1361 C   0  0  0  0  0  0
    2.5427    0.3794   -1.1651 C   0  0  0  0  0  0
    2.5570    1.7097   -1.5939 C   0  0  0  0  0  0
    2.1531    2.7213   -0.7301 C   0  0  0  0  0  0
    1.7427    2.4020    0.5608 C   0  0  0  0  0  0
    1.7247    1.0699    0.9868 C   0  0  0  0  0  0
   -0.8479   -0.6709   -0.1975 N   0  0  0  0  0  0
   -2.3395    0.9270    0.9728 H   0  0  0  0  0  0
   -2.8344    2.5709    0.7681 H   0  0  0  0  0  0
   -1.2584    2.0707    0.1141 H   0  0  0  0  0  0
   -4.8249    2.7994   -3.5554 H   0  0  0  0  0  0
   -4.6734    0.4983   -4.4453 H   0  0  0  0  0  0
   -3.3647   -1.1991   -3.2572 H   0  0  0  0  0  0
    1.2114   -3.2504    0.1918 H   0  0  0  0  0  0
    0.3090   -0.8451    2.8446 H   0  0  0  0  0  0
    0.5437   -2.0871    4.0506 H   0  0  0  0  0  0
    2.5258   -0.4278    3.5471 H   0  0  0  0  0  0
    2.8653   -2.1060    3.8852 H   0  0  0  0  0  0
    3.9924   -0.9219    1.7848 H   0  0  0  0  0  0
    3.5410   -2.6098    1.7905 H   0  0  0  0  0  0
    2.8027   -1.9084   -0.2264 H   0  0  0  0  0  0
    2.8733   -0.3857   -1.8642 H   0  0  0  0  0  0
    2.8877    1.9497   -2.6004 H   0  0  0  0  0  0
    2.1618    3.7559   -1.0607 H   0  0  0  0  0  0
    1.4319    3.1916    1.2406 H   0  0  0  0  0  0
    1.3849    0.8754    1.9967 H   0  0  0  0  0  0
    0.6049   -2.7870    2.0822 N   0  3  0  0  0  0
   -0.3918   -3.0294    2.1271 H   0  0  0  0  0  0
    1.1691   -3.6176    2.2966 H   0  0  0  0  0  0
  1  2  1  0  0  0
  1 25  1  0  0  0
  1 26  1  0  0  0
  1 27  1  0  0  0
  2  3  2  0  0  0
  2  8  1  0  0  0
  3  4  1  0  0  0
  3  5  1  0  0  0
  5  6  2  0  0  0
  5 28  1  0  0  0
  6  7  1  0  0  0
  6 29  1  0  0  0
  7  8  2  0  0  0
  7 30  1  0  0  0
  8  9  1  0  0  0
  9 10  2  0  0  0
  9 24  1  0  0  0
 10 11  1  0  0  0
 11 12  1  0  0  0
 12 13  1  0  0  0
 12 24  2  0  0  0
 13 17  1  0  0  0
 13 31  1  0  0  0
 13 44  1  0  0  0
 14 15  1  0  0  0
 14 32  1  0  0  0
 14 33  1  0  0  0
 14 44  1  0  0  0
 15 16  1  0  0  0
 15 34  1  0  0  0
 15 35  1  0  0  0
 16 17  1  0  0  0
 16 36  1  0  0  0
 16 37  1  0  0  0
 17 18  1  0  0  0
 17 38  1  0  0  0
 18 19  2  0  0  0
 18 23  1  0  0  0
 19 20  1  0  0  0
 19 39  1  0  0  0
 20 21  2  0  0  0
 20 40  1  0  0  0
 21 22  1  0  0  0
 21 41  1  0  0  0
 22 23  2  0  0  0
 22 42  1  0  0  0
 23 43  1  0  0  0
 44 45  1  0  0  0
 44 46  1  0  0  0
M  CHG  1  44   1
M  END
> <energy>
109.383

> <i_ionizer_Ion_state_n>
1

> <i_ionizer_Tot_Q>
1

> <s_ionizer_Ion_centers>
44

> <s_ionizer_Ion_types>
N5

> <s_ionizer_Ion_ctrs_in>
14

> <r_ionizer_Ionization_penalty>
0.000148807

> <r_ionizer_Ionization_penalty_charging>
0.000148807

> <r_ionizer_Ionization_penalty_neutral>
0

$$$$
ZINC001211866532
                    3D
 Schrodinger Suite 2019-4.
 46 49  0  0  1  0            999 V2000
   -4.5806   -1.0053    1.1602 C   0  0  0  0  0  0
   -4.3014   -0.2348   -0.1051 C   0  0  0  0  0  0
   -5.3462   -0.0116   -1.0271 C   0  0  0  0  0  0
   -6.9629   -0.5629   -0.7310 Cl  0  0  0  0  0  0
   -5.1171    0.6452   -2.2418 C   0  0  0  0  0  0
   -3.8389    1.0877   -2.5691 C   0  0  0  0  0  0
   -2.7885    0.8606   -1.6821 C   0  0  0  0  0  0
   -3.0003    0.2005   -0.4553 C   0  0  0  0  0  0
   -1.8246   -0.0508    0.3708 C   0  0  0  0  0  0
   -1.6991    0.3389    1.6488 N   0  0  0  0  0  0
   -0.4601   -0.1755    2.0273 O   0  0  0  0  0  0
    0.0547   -0.8067    0.9293 C   0  0  0  0  0  0
    1.3701   -1.5168    1.1246 C   0  0  2  0  0  0
    2.0312   -2.3281   -1.0695 C   0  0  0  0  0  0
    3.4514   -1.7707   -0.9976 C   0  0  0  0  0  0
    3.8193   -1.2109    0.3773 C   0  0  0  0  0  0
    2.6309   -0.5920    1.1521 C   0  0  1  0  0  0
    2.4399    0.8829    0.8268 C   0  0  0  0  0  0
    2.6413    1.8343    1.8432 C   0  0  0  0  0  0
    2.4832    3.1982    1.5979 C   0  0  0  0  0  0
    2.1100    3.6375    0.3321 C   0  0  0  0  0  0
    1.9100    2.7111   -0.6883 C   0  0  0  0  0  0
    2.0699    1.3432   -0.4432 C   0  0  0  0  0  0
   -0.7323   -0.7260   -0.1237 N   0  0  0  0  0  0
   -5.4937   -0.6392    1.6411 H   0  0  0  0  0  0
   -3.7974   -0.9123    1.9130 H   0  0  0  0  0  0
   -4.6919   -2.0682    0.9228 H   0  0  0  0  0  0
   -5.9335    0.8053   -2.9438 H   0  0  0  0  0  0
   -3.6595    1.5914   -3.5167 H   0  0  0  0  0  0
   -1.7871    1.1914   -1.9546 H   0  0  0  0  0  0
    1.2939   -1.9529    2.1336 H   0  0  0  0  0  0
    2.0255   -3.2104   -1.7216 H   0  0  0  0  0  0
    1.3645   -1.6048   -1.5489 H   0  0  0  0  0  0
    3.5724   -0.9951   -1.7637 H   0  0  0  0  0  0
    4.1730   -2.5546   -1.2549 H   0  0  0  0  0  0
    4.2016   -2.0488    0.9773 H   0  0  0  0  0  0
    4.6571   -0.5075    0.2882 H   0  0  0  0  0  0
    2.9688   -0.6158    2.2004 H   0  0  0  0  0  0
    2.9228    1.5178    2.8449 H   0  0  0  0  0  0
    2.6449    3.9168    2.3982 H   0  0  0  0  0  0
    1.9726    4.6988    0.1419 H   0  0  0  0  0  0
    1.6254    3.0531   -1.6796 H   0  0  0  0  0  0
    1.8808    0.6519   -1.2583 H   0  0  0  0  0  0
    1.5191   -2.7193    0.2474 N   0  3  0  0  0  0
    2.1749   -3.3779    0.6838 H   0  0  0  0  0  0
    0.6043   -3.1716    0.1343 H   0  0  0  0  0  0
  1  2  1  0  0  0
  1 25  1  0  0  0
  1 26  1  0  0  0
  1 27  1  0  0  0
  2  3  2  0  0  0
  2  8  1  0  0  0
  3  4  1  0  0  0
  3  5  1  0  0  0
  5  6  2  0  0  0
  5 28  1  0  0  0
  6  7  1  0  0  0
  6 29  1  0  0  0
  7  8  2  0  0  0
  7 30  1  0  0  0
  8  9  1  0  0  0
  9 10  2  0  0  0
  9 24  1  0  0  0
 10 11  1  0  0  0
 11 12  1  0  0  0
 12 13  1  0  0  0
 12 24  2  0  0  0
 13 17  1  0  0  0
 13 31  1  0  0  0
 13 44  1  0  0  0
 14 15  1  0  0  0
 14 32  1  0  0  0
 14 33  1  0  0  0
 14 44  1  0  0  0
 15 16  1  0  0  0
 15 34  1  0  0  0
 15 35  1  0  0  0
 16 17  1  0  0  0
 16 36  1  0  0  0
 16 37  1  0  0  0
 17 18  1  0  0  0
 17 38  1  0  0  0
 18 19  2  0  0  0
 18 23  1  0  0  0
 19 20  1  0  0  0
 19 39  1  0  0  0
 20 21  2  0  0  0
 20 40  1  0  0  0
 21 22  1  0  0  0
 21 41  1  0  0  0
 22 23  2  0  0  0
 22 42  1  0  0  0
 23 43  1  0  0  0
 44 45  1  0  0  0
 44 46  1  0  0  0
M  CHG  1  44   1
M  END
> <energy>
107.619

> <i_ionizer_Ion_state_n>
1

> <i_ionizer_Tot_Q>
1

> <s_ionizer_Ion_centers>
44

> <s_ionizer_Ion_types>
N5

> <s_ionizer_Ion_ctrs_in>
14

> <r_ionizer_Ionization_penalty>
0.000148807

> <r_ionizer_Ionization_penalty_charging>
0.000148807

> <r_ionizer_Ionization_penalty_neutral>
0

$$$$
ZINC001211866770
                    3D
 Schrodinger Suite 2019-4.
 43 45  0  0  1  0            999 V2000
    2.5972   -2.0709   -0.3930 C   0  0  0  0  0  0
    3.4433   -1.1047   -1.0831 N   0  0  0  0  0  0
    4.4751   -1.6630   -1.9442 C   0  0  0  0  0  0
    3.6090    0.2107   -0.6439 C   0  0  0  0  0  0
    4.4554    0.9888   -1.0818 O   0  0  0  0  0  0
    2.7130    0.7098    0.4084 C   0  0  0  0  0  0
    1.3675    0.9652    0.1194 C   0  0  0  0  0  0
    0.4951    1.3679    1.1363 C   0  0  0  0  0  0
   -0.8957    1.4686    0.9275 N   0  0  0  0  0  0
   -1.5844    1.6078   -0.3091 C   0  0  0  0  0  0
   -1.3569    2.7437   -1.1060 C   0  0  0  0  0  0
   -2.1435    2.9959   -2.2337 C   0  0  0  0  0  0
   -3.1864    2.1352   -2.5617 C   0  0  0  0  0  0
   -3.4322    1.0152   -1.7699 C   0  0  0  0  0  0
   -2.6467    0.7284   -0.6354 C   0  0  0  0  0  0
   -2.9643   -0.4759    0.1546 C   0  0  0  0  0  0
   -2.0076   -1.4411    0.4724 C   0  0  0  0  0  0
   -2.3862   -2.5651    1.2091 C   0  0  0  0  0  0
   -3.7084   -2.6972    1.6062 C   0  0  0  0  0  0
   -4.2103   -4.0470    2.5370 Cl  0  0  0  0  0  0
   -4.6054   -1.7126    1.2311 C   0  0  0  0  0  0
   -4.2676   -0.6130    0.5141 N   0  0  0  0  0  0
    1.0016    1.4911    2.4428 C   0  0  0  0  0  0
    2.3558    1.2687    2.7186 C   0  0  0  0  0  0
    3.2088    0.8814    1.6954 C   0  0  0  0  0  0
    4.4963    0.6374    1.9809 F   0  0  0  0  0  0
    2.4172   -2.9312   -1.0428 H   0  0  0  0  0  0
    3.0974   -2.3925    0.5238 H   0  0  0  0  0  0
    1.6293   -1.6443   -0.1316 H   0  0  0  0  0  0
    5.0523   -0.8871   -2.4525 H   0  0  0  0  0  0
    5.1579   -2.2647   -1.3358 H   0  0  0  0  0  0
    4.0015   -2.3007   -2.6963 H   0  0  0  0  0  0
    1.0042    0.8117   -0.8939 H   0  0  0  0  0  0
   -1.3573    2.0416    1.6341 H   0  0  0  0  0  0
   -0.5783    3.4557   -0.8385 H   0  0  0  0  0  0
   -1.9615    3.8813   -2.8391 H   0  0  0  0  0  0
   -3.8225    2.3397   -3.4193 H   0  0  0  0  0  0
   -4.2618    0.3563   -2.0208 H   0  0  0  0  0  0
   -0.9790   -1.3247    0.1499 H   0  0  0  0  0  0
   -1.6485   -3.3173    1.4690 H   0  0  0  0  0  0
   -5.6537   -1.7706    1.5069 H   0  0  0  0  0  0
    0.3369    1.7522    3.2659 H   0  0  0  0  0  0
    2.7432    1.3694    3.7291 H   0  0  0  0  0  0
  1  2  1  0  0  0
  1 27  1  0  0  0
  1 28  1  0  0  0
  1 29  1  0  0  0
  2  3  1  0  0  0
  2  4  1  0  0  0
  3 30  1  0  0  0
  3 31  1  0  0  0
  3 32  1  0  0  0
  4  5  2  0  0  0
  4  6  1  0  0  0
  6  7  2  0  0  0
  6 25  1  0  0  0
  7  8  1  0  0  0
  7 33  1  0  0  0
  8  9  1  0  0  0
  8 23  2  0  0  0
  9 10  1  0  0  0
  9 34  1  0  0  0
 10 11  2  0  0  0
 10 15  1  0  0  0
 11 12  1  0  0  0
 11 35  1  0  0  0
 12 13  2  0  0  0
 12 36  1  0  0  0
 13 14  1  0  0  0
 13 37  1  0  0  0
 14 15  2  0  0  0
 14 38  1  0  0  0
 15 16  1  0  0  0
 16 17  2  0  0  0
 16 22  1  0  0  0
 17 18  1  0  0  0
 17 39  1  0  0  0
 18 19  2  0  0  0
 18 40  1  0  0  0
 19 20  1  0  0  0
 19 21  1  0  0  0
 21 22  2  0  0  0
 21 41  1  0  0  0
 23 24  1  0  0  0
 23 42  1  0  0  0
 24 25  2  0  0  0
 24 43  1  0  0  0
 25 26  1  0  0  0
M  END
> <energy>
74.8309

> <i_ionizer_Ion_state_n>
0

> <i_ionizer_Tot_Q>
0

> <s_ionizer_Ion_centers>


> <s_ionizer_Ion_types>


> <s_ionizer_Ion_ctrs_in>


> <r_ionizer_Ionization_penalty>
0.00741239

> <r_ionizer_Ionization_penalty_charging>
0

> <r_ionizer_Ionization_penalty_neutral>
0.00741239

$$$$
ZINC001211866899
                    3D
 Schrodinger Suite 2019-4.
 43 46  0  0  1  0            999 V2000
    6.7423    2.5312    0.5027 F   0  0  0  0  0  0
    5.6372    1.8378    0.1922 C   0  0  0  0  0  0
    5.2699    1.7315   -1.1442 C   0  0  0  0  0  0
    4.1235    1.0104   -1.4903 C   0  0  0  0  0  0
    3.3373    0.3966   -0.5000 C   0  0  0  0  0  0
    2.1189   -0.3265   -0.8491 C   0  0  0  0  0  0
    1.7447   -0.6068   -2.1078 N   0  0  0  0  0  0
    0.4918   -1.1964   -1.9578 O   0  0  0  0  0  0
    0.2311   -1.2165   -0.6202 C   0  0  0  0  0  0
   -1.1274   -1.7046   -0.1986 C   0  0  2  0  0  0
   -1.1132   -2.7681    2.0022 C   0  0  0  0  0  0
   -2.4796   -2.2034    2.3994 C   0  0  0  0  0  0
   -3.0040   -1.1464    1.4206 C   0  0  0  0  0  0
   -1.8578   -0.5638    0.5785 C   0  0  2  0  0  0
   -2.2964    0.5634   -0.3456 C   0  0  0  0  0  0
   -3.4688    0.4907   -1.1087 C   0  0  0  0  0  0
   -3.8288    1.5396   -1.9581 C   0  0  0  0  0  0
   -3.0152    2.6642   -2.0676 C   0  0  0  0  0  0
   -1.8371    2.7431   -1.3325 C   0  0  0  0  0  0
   -1.4818    1.7013   -0.4743 C   0  0  0  0  0  0
    1.2176   -0.7371    0.1084 N   0  0  0  0  0  0
    3.7218    0.5196    0.8446 C   0  0  0  0  0  0
    4.8680    1.2401    1.1866 C   0  0  0  0  0  0
    5.3058    1.3902    2.8441 Cl  0  0  0  0  0  0
    5.8721    2.2139   -1.9078 H   0  0  0  0  0  0
    3.8417    0.9431   -2.5409 H   0  0  0  0  0  0
   -1.6967   -1.9396   -1.1074 H   0  0  0  0  0  0
   -0.3100   -2.1014    2.3370 H   0  0  0  0  0  0
   -0.9569   -3.7200    2.5208 H   0  0  0  0  0  0
   -2.4018   -1.7660    3.4010 H   0  0  0  0  0  0
   -3.2157   -3.0146    2.4725 H   0  0  0  0  0  0
   -3.5219   -0.3551    1.9755 H   0  0  0  0  0  0
   -3.7566   -1.6153    0.7751 H   0  0  0  0  0  0
   -1.1606   -0.1165    1.3033 H   0  0  0  0  0  0
   -4.1181   -0.3797   -1.0600 H   0  0  0  0  0  0
   -4.7457    1.4746   -2.5387 H   0  0  0  0  0  0
   -3.2955    3.4783   -2.7314 H   0  0  0  0  0  0
   -1.1922    3.6133   -1.4227 H   0  0  0  0  0  0
   -0.5523    1.7807    0.0872 H   0  0  0  0  0  0
    3.1254    0.0566    1.6271 H   0  0  0  0  0  0
   -1.0397   -2.9977    0.5544 N   0  3  0  0  0  0
   -1.8173   -3.6052    0.2708 H   0  0  0  0  0  0
   -0.1484   -3.4563    0.3320 H   0  0  0  0  0  0
  1  2  1  0  0  0
  2  3  2  0  0  0
  2 23  1  0  0  0
  3  4  1  0  0  0
  3 25  1  0  0  0
  4  5  2  0  0  0
  4 26  1  0  0  0
  5  6  1  0  0  0
  5 22  1  0  0  0
  6  7  2  0  0  0
  6 21  1  0  0  0
  7  8  1  0  0  0
  8  9  1  0  0  0
  9 10  1  0  0  0
  9 21  2  0  0  0
 10 14  1  0  0  0
 10 27  1  0  0  0
 10 41  1  0  0  0
 11 12  1  0  0  0
 11 28  1  0  0  0
 11 29  1  0  0  0
 11 41  1  0  0  0
 12 13  1  0  0  0
 12 30  1  0  0  0
 12 31  1  0  0  0
 13 14  1  0  0  0
 13 32  1  0  0  0
 13 33  1  0  0  0
 14 15  1  0  0  0
 14 34  1  0  0  0
 15 16  2  0  0  0
 15 20  1  0  0  0
 16 17  1  0  0  0
 16 35  1  0  0  0
 17 18  2  0  0  0
 17 36  1  0  0  0
 18 19  1  0  0  0
 18 37  1  0  0  0
 19 20  2  0  0  0
 19 38  1  0  0  0
 20 39  1  0  0  0
 22 23  2  0  0  0
 22 40  1  0  0  0
 23 24  1  0  0  0
 41 42  1  0  0  0
 41 43  1  0  0  0
M  CHG  1  41   1
M  END
> <energy>
91.9203

> <i_ionizer_Ion_state_n>
1

> <i_ionizer_Tot_Q>
1

> <s_ionizer_Ion_centers>
41

> <s_ionizer_Ion_types>
N5

> <s_ionizer_Ion_ctrs_in>
11

> <r_ionizer_Ionization_penalty>
0.000148807

> <r_ionizer_Ionization_penalty_charging>
0.000148807

> <r_ionizer_Ionization_penalty_neutral>
0

$$$$
ZINC001211866901
                    3D
 Schrodinger Suite 2019-4.
 43 46  0  0  1  0            999 V2000
    6.6422    2.4187   -1.7691 F   0  0  0  0  0  0
    5.5206    1.9226   -1.2302 C   0  0  0  0  0  0
    4.7743    2.7342   -0.3802 C   0  0  0  0  0  0
    3.6113    2.2326    0.2082 C   0  0  0  0  0  0
    3.1926    0.9186   -0.0589 C   0  0  0  0  0  0
    1.9964    0.3828    0.5747 C   0  0  0  0  0  0
    1.5524    0.7898    1.7737 N   0  0  0  0  0  0
    0.4094    0.0245    1.9771 O   0  0  0  0  0  0
    0.2684   -0.7689    0.8740 C   0  0  0  0  0  0
   -0.9128   -1.6967    0.8870 C   0  0  1  0  0  0
   -1.7692   -3.7933    0.0121 C   0  0  0  0  0  0
   -2.7235   -3.1474   -0.9931 C   0  0  0  0  0  0
   -2.6271   -1.6209   -1.0171 C   0  0  0  0  0  0
   -2.2434   -1.0521    0.3639 C   0  0  2  0  0  0
   -2.3124    0.4695    0.4144 C   0  0  0  0  0  0
   -1.7970    1.2600   -0.6255 C   0  0  0  0  0  0
   -1.8255    2.6535   -0.5482 C   0  0  0  0  0  0
   -2.3658    3.2800    0.5702 C   0  0  0  0  0  0
   -2.8808    2.5107    1.6105 C   0  0  0  0  0  0
   -2.8563    1.1159    1.5349 C   0  0  0  0  0  0
    1.2341   -0.6041   -0.0055 N   0  0  0  0  0  0
    3.9426    0.1206   -0.9353 C   0  0  0  0  0  0
    5.1127    0.6195   -1.5095 C   0  0  0  0  0  0
    6.0518   -0.3880   -2.5430 Cl  0  0  0  0  0  0
    5.1081    3.7476   -0.1776 H   0  0  0  0  0  0
    3.0286    2.8764    0.8662 H   0  0  0  0  0  0
   -1.0853   -1.9499    1.9429 H   0  0  0  0  0  0
   -2.2726   -3.9606    0.9715 H   0  0  0  0  0  0
   -1.4793   -4.7831   -0.3538 H   0  0  0  0  0  0
   -3.7500   -3.4494   -0.7518 H   0  0  0  0  0  0
   -2.5228   -3.5246   -2.0011 H   0  0  0  0  0  0
   -1.8768   -1.3423   -1.7668 H   0  0  0  0  0  0
   -3.5796   -1.1976   -1.3588 H   0  0  0  0  0  0
   -3.0369   -1.4140    1.0384 H   0  0  0  0  0  0
   -1.3440    0.8031   -1.5008 H   0  0  0  0  0  0
   -1.4124    3.2484   -1.3580 H   0  0  0  0  0  0
   -2.3822    4.3641    0.6336 H   0  0  0  0  0  0
   -3.2957    2.9984    2.4891 H   0  0  0  0  0  0
   -3.2575    0.5381    2.3660 H   0  0  0  0  0  0
    3.6190   -0.8957   -1.1541 H   0  0  0  0  0  0
   -0.5730   -2.9766    0.1973 N   0  3  0  0  0  0
   -0.1622   -2.7670   -0.7201 H   0  0  0  0  0  0
    0.1059   -3.4965    0.7656 H   0  0  0  0  0  0
  1  2  1  0  0  0
  2  3  2  0  0  0
  2 23  1  0  0  0
  3  4  1  0  0  0
  3 25  1  0  0  0
  4  5  2  0  0  0
  4 26  1  0  0  0
  5  6  1  0  0  0
  5 22  1  0  0  0
  6  7  2  0  0  0
  6 21  1  0  0  0
  7  8  1  0  0  0
  8  9  1  0  0  0
  9 10  1  0  0  0
  9 21  2  0  0  0
 10 14  1  0  0  0
 10 27  1  0  0  0
 10 41  1  0  0  0
 11 12  1  0  0  0
 11 28  1  0  0  0
 11 29  1  0  0  0
 11 41  1  0  0  0
 12 13  1  0  0  0
 12 30  1  0  0  0
 12 31  1  0  0  0
 13 14  1  0  0  0
 13 32  1  0  0  0
 13 33  1  0  0  0
 14 15  1  0  0  0
 14 34  1  0  0  0
 15 16  2  0  0  0
 15 20  1  0  0  0
 16 17  1  0  0  0
 16 35  1  0  0  0
 17 18  2  0  0  0
 17 36  1  0  0  0
 18 19  1  0  0  0
 18 37  1  0  0  0
 19 20  2  0  0  0
 19 38  1  0  0  0
 20 39  1  0  0  0
 22 23  2  0  0  0
 22 40  1  0  0  0
 23 24  1  0  0  0
 41 42  1  0  0  0
 41 43  1  0  0  0
M  CHG  1  41   1
M  END
> <energy>
98.6476

> <i_ionizer_Ion_state_n>
1

> <i_ionizer_Tot_Q>
1

> <s_ionizer_Ion_centers>
41

> <s_ionizer_Ion_types>
N5

> <s_ionizer_Ion_ctrs_in>
11

> <r_ionizer_Ionization_penalty>
0.000148807

> <r_ionizer_Ionization_penalty_charging>
0.000148807

> <r_ionizer_Ionization_penalty_neutral>
0

$$$$
ZINC001211866903
                    3D
 Schrodinger Suite 2019-4.
 43 46  0  0  1  0            999 V2000
    7.3555    1.4856   -0.5835 F   0  0  0  0  0  0
    6.1211    1.0883   -0.2406 C   0  0  0  0  0  0
    5.4296    1.8125    0.7262 C   0  0  0  0  0  0
    4.1404    1.4199    1.0932 C   0  0  0  0  0  0
    3.5327    0.3098    0.4839 C   0  0  0  0  0  0
    2.1724   -0.0770    0.8344 C   0  0  0  0  0  0
    1.5727    0.2519    1.9900 N   0  0  0  0  0  0
    0.2909   -0.2790    1.8563 O   0  0  0  0  0  0
    0.2390   -0.8699    0.6264 C   0  0  0  0  0  0
   -1.0784   -1.4817    0.2354 C   0  0  1  0  0  0
   -2.1201   -3.3850   -0.8976 C   0  0  0  0  0  0
   -2.9891   -2.4614   -1.7451 C   0  0  0  0  0  0
   -3.2438   -1.1318   -1.0432 C   0  0  0  0  0  0
   -1.9135   -0.4846   -0.6214 C   0  0  1  0  0  0
   -2.1967    0.8614    0.0291 C   0  0  0  0  0  0
   -1.9496    2.0365   -0.6991 C   0  0  0  0  0  0
   -2.2083    3.2900   -0.1443 C   0  0  0  0  0  0
   -2.7092    3.3854    1.1498 C   0  0  0  0  0  0
   -2.9663    2.2281    1.8826 C   0  0  0  0  0  0
   -2.7208    0.9726    1.3235 C   0  0  0  0  0  0
    1.3802   -0.8001   -0.0254 N   0  0  0  0  0  0
    4.2429   -0.4100   -0.4915 C   0  0  0  0  0  0
    5.5374   -0.0244   -0.8447 C   0  0  0  0  0  0
    6.4005   -0.9329   -2.0283 Cl  0  0  0  0  0  0
    5.8963    2.6805    1.1820 H   0  0  0  0  0  0
    3.6057    1.9988    1.8440 H   0  0  0  0  0  0
   -1.6218   -1.7283    1.1582 H   0  0  0  0  0  0
   -2.6665   -3.7094   -0.0040 H   0  0  0  0  0  0
   -1.8935   -4.2884   -1.4743 H   0  0  0  0  0  0
   -3.9452   -2.9516   -1.9634 H   0  0  0  0  0  0
   -2.4978   -2.2754   -2.7090 H   0  0  0  0  0  0
   -3.8008   -0.4603   -1.7094 H   0  0  0  0  0  0
   -3.8807   -1.3051   -0.1663 H   0  0  0  0  0  0
   -1.3397   -0.2935   -1.5402 H   0  0  0  0  0  0
   -1.5579    1.9853   -1.7130 H   0  0  0  0  0  0
   -2.0190    4.1892   -0.7241 H   0  0  0  0  0  0
   -2.9008    4.3611    1.5880 H   0  0  0  0  0  0
   -3.3661    2.3027    2.8901 H   0  0  0  0  0  0
   -2.9454    0.0873    1.9144 H   0  0  0  0  0  0
    3.7849   -1.2726   -0.9727 H   0  0  0  0  0  0
   -0.8474   -2.7526   -0.5194 N   0  3  0  0  0  0
   -0.3111   -2.5445   -1.3699 H   0  0  0  0  0  0
   -0.3138   -3.4010    0.0715 H   0  0  0  0  0  0
  1  2  1  0  0  0
  2  3  2  0  0  0
  2 23  1  0  0  0
  3  4  1  0  0  0
  3 25  1  0  0  0
  4  5  2  0  0  0
  4 26  1  0  0  0
  5  6  1  0  0  0
  5 22  1  0  0  0
  6  7  2  0  0  0
  6 21  1  0  0  0
  7  8  1  0  0  0
  8  9  1  0  0  0
  9 10  1  0  0  0
  9 21  2  0  0  0
 10 14  1  0  0  0
 10 27  1  0  0  0
 10 41  1  0  0  0
 11 12  1  0  0  0
 11 28  1  0  0  0
 11 29  1  0  0  0
 11 41  1  0  0  0
 12 13  1  0  0  0
 12 30  1  0  0  0
 12 31  1  0  0  0
 13 14  1  0  0  0
 13 32  1  0  0  0
 13 33  1  0  0  0
 14 15  1  0  0  0
 14 34  1  0  0  0
 15 16  2  0  0  0
 15 20  1  0  0  0
 16 17  1  0  0  0
 16 35  1  0  0  0
 17 18  2  0  0  0
 17 36  1  0  0  0
 18 19  1  0  0  0
 18 37  1  0  0  0
 19 20  2  0  0  0
 19 38  1  0  0  0
 20 39  1  0  0  0
 22 23  2  0  0  0
 22 40  1  0  0  0
 23 24  1  0  0  0
 41 42  1  0  0  0
 41 43  1  0  0  0
M  CHG  1  41   1
M  END
> <energy>
88.2001

> <i_ionizer_Ion_state_n>
1

> <i_ionizer_Tot_Q>
1

> <s_ionizer_Ion_centers>
41

> <s_ionizer_Ion_types>
N5

> <s_ionizer_Ion_ctrs_in>
11

> <r_ionizer_Ionization_penalty>
0.000148807

> <r_ionizer_Ionization_penalty_charging>
0.000148807

> <r_ionizer_Ionization_penalty_neutral>
0

$$$$
ZINC001211866905
                    3D
 Schrodinger Suite 2019-4.
 43 46  0  0  1  0            999 V2000
    6.5425   -2.1020    1.3282 F   0  0  0  0  0  0
    5.3831   -1.8042    0.7253 C   0  0  0  0  0  0
    4.2721   -2.5954    0.9974 C   0  0  0  0  0  0
    3.0506   -2.2871    0.3979 C   0  0  0  0  0  0
    2.9338   -1.1893   -0.4731 C   0  0  0  0  0  0
    1.6354   -0.8523   -1.0374 C   0  0  0  0  0  0
    1.4605   -0.1461   -2.1655 N   0  0  0  0  0  0
    0.0743   -0.0172   -2.2600 O   0  0  0  0  0  0
   -0.4500   -0.6609   -1.1748 C   0  0  0  0  0  0
   -1.9415   -0.5800   -1.0018 C   0  0  2  0  0  0
   -3.6590   -1.9439    0.1101 C   0  0  0  0  0  0
   -3.3229   -1.4067    1.5029 C   0  0  0  0  0  0
   -2.3835   -0.1964    1.4771 C   0  0  0  0  0  0
   -2.3493    0.4665    0.0879 C   0  0  1  0  0  0
   -1.5606    1.7697    0.0260 C   0  0  0  0  0  0
   -0.4452    2.0043    0.8428 C   0  0  0  0  0  0
    0.2780    3.1928    0.7414 C   0  0  0  0  0  0
   -0.0942    4.1603   -0.1839 C   0  0  0  0  0  0
   -1.1901    3.9382   -1.0128 C   0  0  0  0  0  0
   -1.9187    2.7513   -0.9111 C   0  0  0  0  0  0
    0.4663   -1.2119   -0.4097 N   0  0  0  0  0  0
    4.0681   -0.4088   -0.7479 C   0  0  0  0  0  0
    5.2910   -0.7195   -0.1479 C   0  0  0  0  0  0
    6.6737    0.2523   -0.4873 Cl  0  0  0  0  0  0
    4.3599   -3.4378    1.6780 H   0  0  0  0  0  0
    2.1769   -2.9019    0.6210 H   0  0  0  0  0  0
   -2.3687   -0.2348   -1.9541 H   0  0  0  0  0  0
   -4.0347   -2.9682    0.2088 H   0  0  0  0  0  0
   -4.4663   -1.3615   -0.3454 H   0  0  0  0  0  0
   -2.8612   -2.1938    2.1094 H   0  0  0  0  0  0
   -4.2569   -1.1396    2.0118 H   0  0  0  0  0  0
   -2.6889    0.5253    2.2447 H   0  0  0  0  0  0
   -1.3822   -0.5446    1.7569 H   0  0  0  0  0  0
   -3.3952    0.7509   -0.1177 H   0  0  0  0  0  0
   -0.1067    1.2559    1.5567 H   0  0  0  0  0  0
    1.1414    3.3516    1.3822 H   0  0  0  0  0  0
    0.4708    5.0844   -0.2597 H   0  0  0  0  0  0
   -1.4719    4.6878   -1.7461 H   0  0  0  0  0  0
   -2.7650    2.6007   -1.5782 H   0  0  0  0  0  0
    3.9940    0.4523   -1.4102 H   0  0  0  0  0  0
   -2.4776   -1.9613   -0.7606 N   0  3  0  0  0  0
   -2.7356   -2.3799   -1.6620 H   0  0  0  0  0  0
   -1.7462   -2.5290   -0.3166 H   0  0  0  0  0  0
  1  2  1  0  0  0
  2  3  2  0  0  0
  2 23  1  0  0  0
  3  4  1  0  0  0
  3 25  1  0  0  0
  4  5  2  0  0  0
  4 26  1  0  0  0
  5  6  1  0  0  0
  5 22  1  0  0  0
  6  7  2  0  0  0
  6 21  1  0  0  0
  7  8  1  0  0  0
  8  9  1  0  0  0
  9 10  1  0  0  0
  9 21  2  0  0  0
 10 14  1  0  0  0
 10 27  1  0  0  0
 10 41  1  0  0  0
 11 12  1  0  0  0
 11 28  1  0  0  0
 11 29  1  0  0  0
 11 41  1  0  0  0
 12 13  1  0  0  0
 12 30  1  0  0  0
 12 31  1  0  0  0
 13 14  1  0  0  0
 13 32  1  0  0  0
 13 33  1  0  0  0
 14 15  1  0  0  0
 14 34  1  0  0  0
 15 16  2  0  0  0
 15 20  1  0  0  0
 16 17  1  0  0  0
 16 35  1  0  0  0
 17 18  2  0  0  0
 17 36  1  0  0  0
 18 19  1  0  0  0
 18 37  1  0  0  0
 19 20  2  0  0  0
 19 38  1  0  0  0
 20 39  1  0  0  0
 22 23  2  0  0  0
 22 40  1  0  0  0
 23 24  1  0  0  0
 41 42  1  0  0  0
 41 43  1  0  0  0
M  CHG  1  41   1
M  END
> <energy>
96.1896

> <i_ionizer_Ion_state_n>
1

> <i_ionizer_Tot_Q>
1

> <s_ionizer_Ion_centers>
41

> <s_ionizer_Ion_types>
N5

> <s_ionizer_Ion_ctrs_in>
11

> <r_ionizer_Ionization_penalty>
0.000148807

> <r_ionizer_Ionization_penalty_charging>
0.000148807

> <r_ionizer_Ionization_penalty_neutral>
0

$$$$
ZINC001211867111
                    3D
 Schrodinger Suite 2019-4.
 43 46  0  0  1  0            999 V2000
    1.8224   -1.8407   -2.4181 O   0  0  0  0  0  0
    1.6762   -1.4594   -1.2650 C   0  0  0  0  0  0
    0.8450   -2.2911   -0.3579 C   0  0  0  0  0  0
   -0.4224   -1.8191   -0.0083 C   0  0  0  0  0  0
   -1.2305   -2.5066    0.9077 C   0  0  0  0  0  0
   -2.5182   -2.0492    1.2859 N   0  0  0  0  0  0
   -3.0395   -0.8672    0.8680 C   0  0  0  0  0  0
   -3.0954   -0.4474   -0.3770 N   0  0  0  0  0  0
   -3.5413    0.8610   -0.4374 C   0  0  0  0  0  0
   -3.6928    1.6353   -1.6100 C   0  0  0  0  0  0
   -4.1205    2.9626   -1.5097 C   0  0  0  0  0  0
   -4.3744    3.5222   -0.2614 C   0  0  0  0  0  0
   -4.2455    2.7753    0.9117 C   0  0  0  0  0  0
   -3.8398    1.4386    0.7968 C   0  0  0  0  0  0
   -3.6317    0.2565    2.0299 S   0  0  0  0  0  0
   -0.7628   -3.7254    1.4181 C   0  0  0  0  0  0
    0.4891   -4.2257    1.0320 C   0  0  0  0  0  0
    1.2862   -3.5113    0.1338 C   0  0  0  0  0  0
    2.4909   -3.9940   -0.1911 F   0  0  0  0  0  0
    2.1783   -0.2542   -0.7572 N   0  0  0  0  0  0
    2.0740    0.1406    0.6489 C   0  0  0  0  0  0
    2.8382    1.4243    0.9738 C   0  0  0  0  0  0
    4.2208    1.4235    0.3281 C   0  0  0  0  0  0
    4.1648    1.1488   -1.1796 C   0  0  0  0  0  0
    2.7766    0.7201   -1.6602 C   0  0  0  0  0  0
   -0.7509   -0.8804   -0.4450 H   0  0  0  0  0  0
   -2.7429   -2.3108    2.2401 H   0  0  0  0  0  0
   -3.4762    1.1924   -2.5765 H   0  0  0  0  0  0
   -4.2407    3.5635   -2.4098 H   0  0  0  0  0  0
   -4.6896    4.5629   -0.1966 H   0  0  0  0  0  0
   -4.4465    3.2178    1.8823 H   0  0  0  0  0  0
   -1.3738   -4.3013    2.1147 H   0  0  0  0  0  0
    0.8473   -5.1668    1.4394 H   0  0  0  0  0  0
    1.0196    0.2932    0.8970 H   0  0  0  0  0  0
    2.4350   -0.6897    1.2649 H   0  0  0  0  0  0
    2.9336    1.5280    2.0597 H   0  0  0  0  0  0
    2.2686    2.3010    0.6296 H   0  0  0  0  0  0
    4.7305    2.3770    0.5220 H   0  0  0  0  0  0
    4.8295    0.6457    0.8124 H   0  0  0  0  0  0
    4.9079    0.3761   -1.4257 H   0  0  0  0  0  0
    4.4728    2.0381   -1.7440 H   0  0  0  0  0  0
    2.1051    1.5874   -1.6795 H   0  0  0  0  0  0
    2.8229    0.3483   -2.6868 H   0  0  0  0  0  0
  1  2  2  0  0  0
  2  3  1  0  0  0
  2 20  1  0  0  0
  3  4  2  0  0  0
  3 18  1  0  0  0
  4  5  1  0  0  0
  4 26  1  0  0  0
  5  6  1  0  0  0
  5 16  2  0  0  0
  6  7  1  0  0  0
  6 27  1  0  0  0
  7  8  2  0  0  0
  7 15  1  0  0  0
  8  9  1  0  0  0
  9 10  2  0  0  0
  9 14  1  0  0  0
 10 11  1  0  0  0
 10 28  1  0  0  0
 11 12  2  0  0  0
 11 29  1  0  0  0
 12 13  1  0  0  0
 12 30  1  0  0  0
 13 14  2  0  0  0
 13 31  1  0  0  0
 14 15  1  0  0  0
 16 17  1  0  0  0
 16 32  1  0  0  0
 17 18  2  0  0  0
 17 33  1  0  0  0
 18 19  1  0  0  0
 20 21  1  0  0  0
 20 25  1  0  0  0
 21 22  1  0  0  0
 21 34  1  0  0  0
 21 35  1  0  0  0
 22 23  1  0  0  0
 22 36  1  0  0  0
 22 37  1  0  0  0
 23 24  1  0  0  0
 23 38  1  0  0  0
 23 39  1  0  0  0
 24 25  1  0  0  0
 24 40  1  0  0  0
 24 41  1  0  0  0
 25 42  1  0  0  0
 25 43  1  0  0  0
M  END
> <energy>
17.4276

> <i_ionizer_Ion_state_n>
0

> <i_ionizer_Tot_Q>
0

> <s_ionizer_Ion_centers>


> <s_ionizer_Ion_types>


> <s_ionizer_Ion_ctrs_in>


> <r_ionizer_Ionization_penalty>
0

> <r_ionizer_Ionization_penalty_charging>
0

> <r_ionizer_Ionization_penalty_neutral>
0

$$$$
ZINC001211867727
                    3D
 Schrodinger Suite 2019-4.
 40 42  0  0  1  0            999 V2000
   -1.2391   -1.9486   -1.8271 O   0  0  0  0  0  0
   -0.2430   -1.4761   -1.2945 C   0  0  0  0  0  0
   -0.0274   -1.4184    0.0671 N   0  0  0  0  0  0
   -1.0522   -1.7428    1.0408 C   0  0  0  0  0  0
   -1.7625   -0.5474    1.6777 C   0  0  0  0  0  0
   -2.1938    0.4828    0.6617 C   0  0  0  0  0  0
   -3.2493    0.2130   -0.2213 C   0  0  0  0  0  0
   -3.6341    1.1539   -1.1782 C   0  0  0  0  0  0
   -2.9697    2.3769   -1.2614 C   0  0  0  0  0  0
   -1.9216    2.6524   -0.3865 C   0  0  0  0  0  0
   -1.1000    4.1607   -0.4869 Cl  0  0  0  0  0  0
   -1.5304    1.7158    0.5706 C   0  0  0  0  0  0
   -0.7367   -2.8882    1.9889 C   0  0  0  0  0  0
   -1.8012   -3.0597    0.9540 C   0  0  0  0  0  0
    0.7357   -0.8941   -2.0417 O   0  0  0  0  0  0
    2.1099   -1.1154   -1.6889 C   0  0  0  0  0  0
    2.6716    0.0563   -0.9216 C   0  0  0  0  0  0
    3.4636   -0.1566    0.2171 C   0  0  0  0  0  0
    3.9924    0.9243    0.9256 C   0  0  0  0  0  0
    3.7478    2.2283    0.4959 C   0  0  0  0  0  0
    2.9754    2.4474   -0.6426 C   0  0  0  0  0  0
    2.6965    4.0557   -1.1849 Cl  0  0  0  0  0  0
    2.4361    1.3724   -1.3488 C   0  0  0  0  0  0
    0.6590   -0.7372    0.3609 H   0  0  0  0  0  0
   -2.6431   -0.8668    2.2499 H   0  0  0  0  0  0
   -1.0811   -0.0870    2.4052 H   0  0  0  0  0  0
   -3.7613   -0.7472   -0.1869 H   0  0  0  0  0  0
   -4.4438    0.9249   -1.8666 H   0  0  0  0  0  0
   -3.2681    3.1032   -2.0120 H   0  0  0  0  0  0
   -0.7065    1.9480    1.2409 H   0  0  0  0  0  0
    0.1877   -3.4374    1.8508 H   0  0  0  0  0  0
   -1.0485   -2.8111    3.0244 H   0  0  0  0  0  0
   -2.8358   -3.0883    1.2751 H   0  0  0  0  0  0
   -1.5960   -3.7196    0.1183 H   0  0  0  0  0  0
    2.6743   -1.2278   -2.6215 H   0  0  0  0  0  0
    2.2169   -2.0562   -1.1346 H   0  0  0  0  0  0
    3.6773   -1.1672    0.5616 H   0  0  0  0  0  0
    4.6033    0.7515    1.8091 H   0  0  0  0  0  0
    4.1669    3.0676    1.0452 H   0  0  0  0  0  0
    1.8311    1.5581   -2.2348 H   0  0  0  0  0  0
  1  2  2  0  0  0
  2  3  1  0  0  0
  2 15  1  0  0  0
  3  4  1  0  0  0
  3 24  1  0  0  0
  4  5  1  0  0  0
  4 13  1  0  0  0
  4 14  1  0  0  0
  5  6  1  0  0  0
  5 25  1  0  0  0
  5 26  1  0  0  0
  6  7  2  0  0  0
  6 12  1  0  0  0
  7  8  1  0  0  0
  7 27  1  0  0  0
  8  9  2  0  0  0
  8 28  1  0  0  0
  9 10  1  0  0  0
  9 29  1  0  0  0
 10 11  1  0  0  0
 10 12  2  0  0  0
 12 30  1  0  0  0
 13 14  1  0  0  0
 13 31  1  0  0  0
 13 32  1  0  0  0
 14 33  1  0  0  0
 14 34  1  0  0  0
 15 16  1  0  0  0
 16 17  1  0  0  0
 16 35  1  0  0  0
 16 36  1  0  0  0
 17 18  2  0  0  0
 17 23  1  0  0  0
 18 19  1  0  0  0
 18 37  1  0  0  0
 19 20  2  0  0  0
 19 38  1  0  0  0
 20 21  1  0  0  0
 20 39  1  0  0  0
 21 22  1  0  0  0
 21 23  2  0  0  0
 23 40  1  0  0  0
M  END
> <energy>
18.7446

> <i_ionizer_Ion_state_n>
0

> <i_ionizer_Tot_Q>
0

> <s_ionizer_Ion_centers>


> <s_ionizer_Ion_types>


> <s_ionizer_Ion_ctrs_in>


> <r_ionizer_Ionization_penalty>
0

> <r_ionizer_Ionization_penalty_charging>
0

> <r_ionizer_Ionization_penalty_neutral>
0

$$$$
ZINC001211867868
                    3D
 Schrodinger Suite 2019-4.
 40 42  0  0  1  0            999 V2000
    1.4425   -1.7291    2.3042 O   0  0  0  0  0  0
    1.4895   -1.3317    1.1399 C   0  0  0  0  0  0
    0.5035   -1.9050    0.2085 C   0  0  0  0  0  0
   -0.8232   -1.4787    0.3794 C   0  0  0  0  0  0
   -1.8387   -1.9901   -0.4397 C   0  0  0  0  0  0
   -3.1858   -1.5759   -0.2642 N   0  0  0  0  0  0
   -3.5302   -0.2016   -0.1637 C   0  0  0  0  0  0
   -3.9472    0.3755    1.0407 C   0  0  0  0  0  0
   -4.1839    1.7416    1.0648 C   0  0  0  0  0  0
   -4.6392    2.5280    2.5133 Cl  0  0  0  0  0  0
   -4.0621    2.5598    0.0025 N   0  0  0  0  0  0
   -3.6757    1.9732   -1.1418 C   0  0  0  0  0  0
   -3.5487    3.0335   -2.4816 Cl  0  0  0  0  0  0
   -3.3793    0.6296   -1.2752 C   0  0  0  0  0  0
   -1.5262   -2.9991   -1.3641 C   0  0  0  0  0  0
   -0.1958   -3.4175   -1.5304 C   0  0  0  0  0  0
    0.8167   -2.8623   -0.7453 C   0  0  0  0  0  0
    2.0837   -3.2697   -0.9358 F   0  0  0  0  0  0
    2.2631   -0.2587    0.7056 N   0  0  0  0  0  0
    2.8790    0.6232    1.6976 C   0  0  0  0  0  0
    2.6157    2.0920    1.3516 C   0  0  0  0  0  0
    3.0782    2.4743   -0.0597 C   0  0  0  0  0  0
    3.4205    1.2539   -0.9132 C   0  0  0  0  0  0
    2.4407    0.1020   -0.6995 C   0  0  0  0  0  0
   -1.0494   -0.7512    1.1584 H   0  0  0  0  0  0
   -3.5682   -2.0999    0.5263 H   0  0  0  0  0  0
   -4.0486   -0.2108    1.9458 H   0  0  0  0  0  0
   -3.0556    0.2232   -2.2249 H   0  0  0  0  0  0
   -2.3151   -3.4469   -1.9721 H   0  0  0  0  0  0
    0.0447   -4.1912   -2.2545 H   0  0  0  0  0  0
    3.9530    0.4194    1.7164 H   0  0  0  0  0  0
    2.4912    0.4148    2.7010 H   0  0  0  0  0  0
    1.5395    2.2956    1.4370 H   0  0  0  0  0  0
    3.1111    2.7429    2.0890 H   0  0  0  0  0  0
    3.9548    3.1312    0.0077 H   0  0  0  0  0  0
    2.2964    3.0681   -0.5460 H   0  0  0  0  0  0
    4.4447    0.9345   -0.6635 H   0  0  0  0  0  0
    3.4360    1.5366   -1.9713 H   0  0  0  0  0  0
    1.4599    0.3450   -1.1127 H   0  0  0  0  0  0
    2.8084   -0.7787   -1.2308 H   0  0  0  0  0  0
  1  2  2  0  0  0
  2  3  1  0  0  0
  2 19  1  0  0  0
  3  4  2  0  0  0
  3 17  1  0  0  0
  4  5  1  0  0  0
  4 25  1  0  0  0
  5  6  1  0  0  0
  5 15  2  0  0  0
  6  7  1  0  0  0
  6 26  1  0  0  0
  7  8  2  0  0  0
  7 14  1  0  0  0
  8  9  1  0  0  0
  8 27  1  0  0  0
  9 10  1  0  0  0
  9 11  2  0  0  0
 11 12  1  0  0  0
 12 13  1  0  0  0
 12 14  2  0  0  0
 14 28  1  0  0  0
 15 16  1  0  0  0
 15 29  1  0  0  0
 16 17  2  0  0  0
 16 30  1  0  0  0
 17 18  1  0  0  0
 19 20  1  0  0  0
 19 24  1  0  0  0
 20 21  1  0  0  0
 20 31  1  0  0  0
 20 32  1  0  0  0
 21 22  1  0  0  0
 21 33  1  0  0  0
 21 34  1  0  0  0
 22 23  1  0  0  0
 22 35  1  0  0  0
 22 36  1  0  0  0
 23 24  1  0  0  0
 23 37  1  0  0  0
 23 38  1  0  0  0
 24 39  1  0  0  0
 24 40  1  0  0  0
M  END
> <energy>
7.38642

> <i_ionizer_Ion_state_n>
0

> <i_ionizer_Tot_Q>
0

> <s_ionizer_Ion_centers>


> <s_ionizer_Ion_types>


> <s_ionizer_Ion_ctrs_in>


> <r_ionizer_Ionization_penalty>
0.00741239

> <r_ionizer_Ionization_penalty_charging>
0

> <r_ionizer_Ionization_penalty_neutral>
0.00741239

$$$$
ZINC001211867906
                    3D
 Schrodinger Suite 2019-4.
 43 46  0  0  1  0            999 V2000
    3.3700   -1.6427   -1.3082 O   0  0  0  0  0  0
    2.4367   -1.0204   -0.7961 C   0  0  0  0  0  0
    1.3188   -1.8112   -0.2484 C   0  0  0  0  0  0
    0.0099   -1.7135   -0.7344 C   0  0  0  0  0  0
   -1.0220   -2.4290   -0.0997 C   0  0  0  0  0  0
   -2.3897   -2.3331   -0.4946 N   0  0  0  0  0  0
   -2.9004   -1.2686   -1.1738 C   0  0  0  0  0  0
   -2.9455   -1.2115   -2.5446 C   0  0  0  0  0  0
   -3.6336    0.2549   -3.0868 S   0  0  0  0  0  0
   -3.8752    0.8135   -1.4950 C   0  0  0  0  0  0
   -4.4319    2.0210   -1.2683 N   0  0  0  0  0  0
   -4.5584    2.3294    0.0381 C   0  0  0  0  0  0
   -4.1520    1.5275    1.0910 C   0  0  0  0  0  0
   -3.5957    0.2799    0.8169 C   0  0  0  0  0  0
   -3.4476   -0.1025   -0.5375 C   0  0  0  0  0  0
   -0.7009   -3.3115    0.9455 C   0  0  0  0  0  0
    0.6093   -3.4436    1.3966 C   0  0  0  0  0  0
    1.6077   -2.6822    0.8048 C   0  0  0  0  0  0
    2.8458   -2.7715    1.3077 F   0  0  0  0  0  0
    2.4322    0.3694   -0.6266 N   0  0  0  0  0  0
    3.6732    1.1079   -0.8352 C   0  0  0  0  0  0
    4.1829    1.6570    0.5003 C   0  0  0  0  0  0
    3.0523    2.2161    1.3863 C   0  0  0  0  0  0
    1.7468    2.4255    0.6193 C   0  0  0  0  0  0
    1.3038    1.1576   -0.1179 C   0  0  0  0  0  0
   -0.1927   -1.0648   -1.5769 H   0  0  0  0  0  0
   -2.9522   -2.6227    0.3097 H   0  0  0  0  0  0
   -2.6025   -1.9550   -3.2490 H   0  0  0  0  0  0
   -5.0205    3.2969    0.2222 H   0  0  0  0  0  0
   -4.2712    1.8733    2.1119 H   0  0  0  0  0  0
   -3.2608   -0.3592    1.6271 H   0  0  0  0  0  0
   -1.4818   -3.8881    1.4299 H   0  0  0  0  0  0
    0.8501   -4.1060    2.2199 H   0  0  0  0  0  0
    3.4648    1.9276   -1.5352 H   0  0  0  0  0  0
    4.4445    0.4854   -1.2969 H   0  0  0  0  0  0
    4.9218    2.4452    0.2998 H   0  0  0  0  0  0
    4.7060    0.8684    1.0603 H   0  0  0  0  0  0
    3.3773    3.1631    1.8339 H   0  0  0  0  0  0
    2.8781    1.5384    2.2336 H   0  0  0  0  0  0
    0.9500    2.7402    1.3030 H   0  0  0  0  0  0
    1.8868    3.2514   -0.0881 H   0  0  0  0  0  0
    0.6873    1.4438   -0.9828 H   0  0  0  0  0  0
    0.6788    0.5440    0.5381 H   0  0  0  0  0  0
  1  2  2  0  0  0
  2  3  1  0  0  0
  2 20  1  0  0  0
  3  4  2  0  0  0
  3 18  1  0  0  0
  4  5  1  0  0  0
  4 26  1  0  0  0
  5  6  1  0  0  0
  5 16  2  0  0  0
  6  7  1  0  0  0
  6 27  1  0  0  0
  7  8  2  0  0  0
  7 15  1  0  0  0
  8  9  1  0  0  0
  8 28  1  0  0  0
  9 10  1  0  0  0
 10 11  1  0  0  0
 10 15  2  0  0  0
 11 12  2  0  0  0
 12 13  1  0  0  0
 12 29  1  0  0  0
 13 14  2  0  0  0
 13 30  1  0  0  0
 14 15  1  0  0  0
 14 31  1  0  0  0
 16 17  1  0  0  0
 16 32  1  0  0  0
 17 18  2  0  0  0
 17 33  1  0  0  0
 18 19  1  0  0  0
 20 21  1  0  0  0
 20 25  1  0  0  0
 21 22  1  0  0  0
 21 34  1  0  0  0
 21 35  1  0  0  0
 22 23  1  0  0  0
 22 36  1  0  0  0
 22 37  1  0  0  0
 23 24  1  0  0  0
 23 38  1  0  0  0
 23 39  1  0  0  0
 24 25  1  0  0  0
 24 40  1  0  0  0
 24 41  1  0  0  0
 25 42  1  0  0  0
 25 43  1  0  0  0
M  END
> <energy>
47.6378

> <i_ionizer_Ion_state_n>
0

> <i_ionizer_Tot_Q>
0

> <s_ionizer_Ion_centers>


> <s_ionizer_Ion_types>


> <s_ionizer_Ion_ctrs_in>


> <r_ionizer_Ionization_penalty>
0.00741239

> <r_ionizer_Ionization_penalty_charging>
0

> <r_ionizer_Ionization_penalty_neutral>
0.00741239

$$$$
ZINC001211867920
                    3D
 Schrodinger Suite 2019-4.
 47 50  0  0  1  0            999 V2000
   -0.7513    3.7213   -1.8352 O   0  0  0  0  0  0
   -0.4264    3.1480   -0.8027 C   0  0  0  0  0  0
   -1.5082    2.5714    0.0069 C   0  0  0  0  0  0
   -2.1166    1.4301   -0.5128 C   0  0  0  0  0  0
   -3.1991    0.8458    0.1440 C   0  0  0  0  0  0
   -3.7590   -0.3656   -0.3186 N   0  0  0  0  0  0
   -3.0403   -1.5047   -0.4853 C   0  0  0  0  0  0
   -1.7162   -1.8311   -0.3883 C   0  0  0  0  0  0
   -1.6587   -3.2444   -0.5193 C   0  0  0  0  0  0
   -0.4842   -4.1102   -0.3455 C   0  0  0  0  0  0
    0.8077   -3.5583   -0.3754 C   0  0  0  0  0  0
    1.9347   -4.3442   -0.1292 C   0  0  0  0  0  0
    1.7864   -5.6974    0.1605 C   0  0  0  0  0  0
    0.5121   -6.2644    0.1891 C   0  0  0  0  0  0
   -0.6169   -5.4830   -0.0790 C   0  0  0  0  0  0
   -2.8823   -3.7300   -0.7758 N   0  0  0  0  0  0
   -3.7398   -2.6481   -0.7418 O   0  0  0  0  0  0
   -3.6537    1.4234    1.3367 C   0  0  0  0  0  0
   -3.0521    2.5760    1.8540 C   0  0  0  0  0  0
   -1.9810    3.1525    1.1793 C   0  0  0  0  0  0
   -1.4041    4.2501    1.6812 F   0  0  0  0  0  0
    0.9028    2.8733   -0.4683 N   0  0  0  0  0  0
    1.3447    2.1905    0.7462 C   0  0  0  0  0  0
    2.6779    2.7549    1.2459 C   0  0  0  0  0  0
    3.7720    2.8092    0.1738 C   0  0  0  0  0  0
    3.2616    2.4511   -1.2178 C   0  0  0  0  0  0
    1.8894    3.0596   -1.5283 C   0  0  0  0  0  0
   -1.7597    1.0108   -1.4498 H   0  0  0  0  0  0
   -4.7483   -0.4774   -0.1141 H   0  0  0  0  0  0
   -0.9091   -1.1578   -0.1598 H   0  0  0  0  0  0
    0.9573   -2.5044   -0.5980 H   0  0  0  0  0  0
    2.9223   -3.8981   -0.1619 H   0  0  0  0  0  0
    2.6637   -6.3054    0.3775 H   0  0  0  0  0  0
    0.4012   -7.3215    0.4278 H   0  0  0  0  0  0
   -1.5986   -5.9553   -0.0664 H   0  0  0  0  0  0
   -4.4759    0.9649    1.8828 H   0  0  0  0  0  0
   -3.4115    3.0231    2.7791 H   0  0  0  0  0  0
    0.5969    2.2902    1.5333 H   0  0  0  0  0  0
    1.4125    1.1212    0.5126 H   0  0  0  0  0  0
    2.5157    3.7744    1.6209 H   0  0  0  0  0  0
    3.0283    2.1547    2.0936 H   0  0  0  0  0  0
    4.2304    3.8073    0.1548 H   0  0  0  0  0  0
    4.5907    2.1294    0.4449 H   0  0  0  0  0  0
    3.2202    1.3542   -1.3023 H   0  0  0  0  0  0
    3.9787    2.7806   -1.9770 H   0  0  0  0  0  0
    1.5095    2.5988   -2.4524 H   0  0  0  0  0  0
    1.9766    4.1347   -1.7400 H   0  0  0  0  0  0
  1  2  2  0  0  0
  2  3  1  0  0  0
  2 22  1  0  0  0
  3  4  2  0  0  0
  3 20  1  0  0  0
  4  5  1  0  0  0
  4 28  1  0  0  0
  5  6  1  0  0  0
  5 18  2  0  0  0
  6  7  1  0  0  0
  6 29  1  0  0  0
  7  8  2  0  0  0
  7 17  1  0  0  0
  8  9  1  0  0  0
  8 30  1  0  0  0
  9 10  1  0  0  0
  9 16  2  0  0  0
 10 11  2  0  0  0
 10 15  1  0  0  0
 11 12  1  0  0  0
 11 31  1  0  0  0
 12 13  2  0  0  0
 12 32  1  0  0  0
 13 14  1  0  0  0
 13 33  1  0  0  0
 14 15  2  0  0  0
 14 34  1  0  0  0
 15 35  1  0  0  0
 16 17  1  0  0  0
 18 19  1  0  0  0
 18 36  1  0  0  0
 19 20  2  0  0  0
 19 37  1  0  0  0
 20 21  1  0  0  0
 22 23  1  0  0  0
 22 27  1  0  0  0
 23 24  1  0  0  0
 23 38  1  0  0  0
 23 39  1  0  0  0
 24 25  1  0  0  0
 24 40  1  0  0  0
 24 41  1  0  0  0
 25 26  1  0  0  0
 25 42  1  0  0  0
 25 43  1  0  0  0
 26 27  1  0  0  0
 26 44  1  0  0  0
 26 45  1  0  0  0
 27 46  1  0  0  0
 27 47  1  0  0  0
M  END
> <energy>
41.2144

> <i_ionizer_Ion_state_n>
0

> <i_ionizer_Tot_Q>
0

> <s_ionizer_Ion_centers>


> <s_ionizer_Ion_types>


> <s_ionizer_Ion_ctrs_in>


> <r_ionizer_Ionization_penalty>
0

> <r_ionizer_Ionization_penalty_charging>
0

> <r_ionizer_Ionization_penalty_neutral>
0

$$$$
ZINC001211867922
                    3D
 Schrodinger Suite 2019-4.
 45 48  0  0  1  0            999 V2000
    3.6116    1.5881   -3.2077 C   0  0  0  0  0  0
    3.5788    1.6316   -1.7109 C   0  0  0  0  0  0
    4.1636    2.6794   -1.1201 N   0  0  0  0  0  0
    4.1739    2.5861    0.2160 C   0  0  0  0  0  0
    4.8726    3.8179    1.1614 S   0  0  0  0  0  0
    4.5395    2.9781    2.6142 C   0  0  0  0  0  0
    3.8823    1.7879    2.3771 C   0  0  0  0  0  0
    3.6791    1.5423    0.9747 C   0  0  0  0  0  0
    3.0815    0.4856    0.2634 C   0  0  0  0  0  0
    2.6177   -0.6603    0.9392 N   0  0  0  0  0  0
    1.5658   -1.5196    0.5507 C   0  0  0  0  0  0
    1.5115   -2.8148    1.1017 C   0  0  0  0  0  0
    0.4292   -3.6609    0.8464 C   0  0  0  0  0  0
   -0.6338   -3.2059    0.0725 C   0  0  0  0  0  0
   -1.6724   -4.0279   -0.1432 F   0  0  0  0  0  0
   -0.6231   -1.9131   -0.4484 C   0  0  0  0  0  0
   -1.7852   -1.4919   -1.2593 C   0  0  0  0  0  0
   -1.8642   -1.9297   -2.4019 O   0  0  0  0  0  0
   -2.7728   -0.7023   -0.6530 N   0  0  0  0  0  0
   -4.0081   -0.4844   -1.3988 C   0  0  0  0  0  0
   -5.1947   -0.3862   -0.4433 C   0  0  0  0  0  0
   -4.9877    0.7506    0.5501 C   0  0  0  0  0  0
   -3.6750    0.5708    1.3067 C   0  0  0  0  0  0
   -2.4834    0.2780    0.3936 C   0  0  0  0  0  0
    0.4801   -1.0738   -0.2269 C   0  0  0  0  0  0
    3.0350    0.5697   -1.0845 N   0  0  0  0  0  0
    4.2833    0.7868   -3.5328 H   0  0  0  0  0  0
    2.6092    1.3962   -3.6071 H   0  0  0  0  0  0
    3.9803    2.5340   -3.6159 H   0  0  0  0  0  0
    4.8238    3.4039    3.5675 H   0  0  0  0  0  0
    3.5593    1.1196    3.1674 H   0  0  0  0  0  0
    3.4256   -1.1714    1.2846 H   0  0  0  0  0  0
    2.3152   -3.1753    1.7413 H   0  0  0  0  0  0
    0.3959   -4.6624    1.2609 H   0  0  0  0  0  0
   -3.8934    0.4389   -1.9806 H   0  0  0  0  0  0
   -4.1864   -1.3045   -2.1057 H   0  0  0  0  0  0
   -6.1288   -0.2380   -0.9963 H   0  0  0  0  0  0
   -5.2978   -1.3323    0.1040 H   0  0  0  0  0  0
   -5.8245    0.7839    1.2575 H   0  0  0  0  0  0
   -4.9903    1.7117    0.0238 H   0  0  0  0  0  0
   -3.4673    1.4706    1.8969 H   0  0  0  0  0  0
   -3.7918   -0.2522    2.0190 H   0  0  0  0  0  0
   -1.6383   -0.0326    1.0132 H   0  0  0  0  0  0
   -2.1773    1.1973   -0.1249 H   0  0  0  0  0  0
    0.4817   -0.0695   -0.6425 H   0  0  0  0  0  0
  1  2  1  0  0  0
  1 27  1  0  0  0
  1 28  1  0  0  0
  1 29  1  0  0  0
  2  3  2  0  0  0
  2 26  1  0  0  0
  3  4  1  0  0  0
  4  5  1  0  0  0
  4  8  2  0  0  0
  5  6  1  0  0  0
  6  7  2  0  0  0
  6 30  1  0  0  0
  7  8  1  0  0  0
  7 31  1  0  0  0
  8  9  1  0  0  0
  9 10  1  0  0  0
  9 26  2  0  0  0
 10 11  1  0  0  0
 10 32  1  0  0  0
 11 12  2  0  0  0
 11 25  1  0  0  0
 12 13  1  0  0  0
 12 33  1  0  0  0
 13 14  2  0  0  0
 13 34  1  0  0  0
 14 15  1  0  0  0
 14 16  1  0  0  0
 16 17  1  0  0  0
 16 25  2  0  0  0
 17 18  2  0  0  0
 17 19  1  0  0  0
 19 20  1  0  0  0
 19 24  1  0  0  0
 20 21  1  0  0  0
 20 35  1  0  0  0
 20 36  1  0  0  0
 21 22  1  0  0  0
 21 37  1  0  0  0
 21 38  1  0  0  0
 22 23  1  0  0  0
 22 39  1  0  0  0
 22 40  1  0  0  0
 23 24  1  0  0  0
 23 41  1  0  0  0
 23 42  1  0  0  0
 24 43  1  0  0  0
 24 44  1  0  0  0
 25 45  1  0  0  0
M  END
> <energy>
-2.78258

> <i_ionizer_Ion_state_n>
0

> <i_ionizer_Tot_Q>
0

> <s_ionizer_Ion_centers>


> <s_ionizer_Ion_types>


> <s_ionizer_Ion_ctrs_in>


> <r_ionizer_Ionization_penalty>
0

> <r_ionizer_Ionization_penalty_charging>
0

> <r_ionizer_Ionization_penalty_neutral>
0

$$$$
ZINC001211867986
                    3D
 Schrodinger Suite 2019-4.
 43 45  0  0  1  0            999 V2000
    0.8941    0.8069    2.3980 O   0  0  0  0  0  0
    1.5218    0.1716    1.5521 C   0  0  0  0  0  0
    0.9072   -1.0644    1.0562 C   0  0  0  0  0  0
   -0.2459   -0.9637    0.2649 C   0  0  0  0  0  0
   -0.8969   -2.1101   -0.2102 C   0  0  0  0  0  0
   -2.0627   -2.0361   -1.0092 N   0  0  0  0  0  0
   -3.1071   -1.0799   -0.8942 C   0  0  0  0  0  0
   -4.1151   -1.0932   -1.8538 C   0  0  0  0  0  0
   -5.1588   -0.1744   -1.7655 C   0  0  0  0  0  0
   -5.1712    0.7495   -0.7280 C   0  0  0  0  0  0
   -4.1299    0.7287    0.1959 C   0  0  0  0  0  0
   -4.0938    1.7605    1.3157 C   0  0  0  0  0  0
   -3.5551    1.2937    2.4771 F   0  0  0  0  0  0
   -3.3747    2.8750    0.9883 F   0  0  0  0  0  0
   -5.3418    2.2187    1.6477 F   0  0  0  0  0  0
   -3.1126   -0.1753    0.1028 N   0  0  0  0  0  0
   -0.3181   -3.3591    0.0758 C   0  0  0  0  0  0
    0.8263   -3.4575    0.8806 C   0  0  0  0  0  0
    1.4206   -2.3085    1.3850 C   0  0  0  0  0  0
    2.5086   -2.4193    2.1551 F   0  0  0  0  0  0
    2.7157    0.6039    0.9866 N   0  0  0  0  0  0
    3.1241    1.9845    1.2128 C   0  0  0  0  0  0
    3.7652    2.6165   -0.0323 C   0  0  0  0  0  0
    3.2818    1.9703   -1.3339 C   0  0  0  0  0  0
    3.4475    0.4491   -1.3461 C   0  0  0  0  0  0
    3.5504   -0.1428    0.0581 C   0  0  0  0  0  0
   -0.6304    0.0241    0.0236 H   0  0  0  0  0  0
   -2.4592   -2.9498   -1.1936 H   0  0  0  0  0  0
   -4.0938   -1.8140   -2.6695 H   0  0  0  0  0  0
   -5.9584   -0.1782   -2.5037 H   0  0  0  0  0  0
   -5.9771    1.4740   -0.6434 H   0  0  0  0  0  0
   -0.7696   -4.2780   -0.2910 H   0  0  0  0  0  0
    1.2564   -4.4227    1.1207 H   0  0  0  0  0  0
    3.8480    1.9808    2.0346 H   0  0  0  0  0  0
    2.2683    2.5893    1.5351 H   0  0  0  0  0  0
    3.5515    3.6903   -0.0466 H   0  0  0  0  0  0
    4.8575    2.5302    0.0268 H   0  0  0  0  0  0
    2.2165    2.1998   -1.4539 H   0  0  0  0  0  0
    3.7927    2.4155   -2.1975 H   0  0  0  0  0  0
    4.3378    0.1590   -1.9203 H   0  0  0  0  0  0
    2.5852    0.0056   -1.8649 H   0  0  0  0  0  0
    3.3145   -1.2068    0.0326 H   0  0  0  0  0  0
    4.5807   -0.0635    0.4314 H   0  0  0  0  0  0
  1  2  2  0  0  0
  2  3  1  0  0  0
  2 21  1  0  0  0
  3  4  2  0  0  0
  3 19  1  0  0  0
  4  5  1  0  0  0
  4 27  1  0  0  0
  5  6  1  0  0  0
  5 17  2  0  0  0
  6  7  1  0  0  0
  6 28  1  0  0  0
  7  8  2  0  0  0
  7 16  1  0  0  0
  8  9  1  0  0  0
  8 29  1  0  0  0
  9 10  2  0  0  0
  9 30  1  0  0  0
 10 11  1  0  0  0
 10 31  1  0  0  0
 11 12  1  0  0  0
 11 16  2  0  0  0
 12 13  1  0  0  0
 12 14  1  0  0  0
 12 15  1  0  0  0
 17 18  1  0  0  0
 17 32  1  0  0  0
 18 19  2  0  0  0
 18 33  1  0  0  0
 19 20  1  0  0  0
 21 22  1  0  0  0
 21 26  1  0  0  0
 22 23  1  0  0  0
 22 34  1  0  0  0
 22 35  1  0  0  0
 23 24  1  0  0  0
 23 36  1  0  0  0
 23 37  1  0  0  0
 24 25  1  0  0  0
 24 38  1  0  0  0
 24 39  1  0  0  0
 25 26  1  0  0  0
 25 40  1  0  0  0
 25 41  1  0  0  0
 26 42  1  0  0  0
 26 43  1  0  0  0
M  END
> <energy>
67.135

> <i_ionizer_Ion_state_n>
0

> <i_ionizer_Tot_Q>
0

> <s_ionizer_Ion_centers>


> <s_ionizer_Ion_types>


> <s_ionizer_Ion_ctrs_in>


> <r_ionizer_Ionization_penalty>
0.00741239

> <r_ionizer_Ionization_penalty_charging>
0

> <r_ionizer_Ionization_penalty_neutral>
0.00741239

$$$$
ZINC001211868016
                    3D
 Schrodinger Suite 2019-4.
 40 42  0  0  1  0            999 V2000
    0.9507   -1.0188   -3.1106 O   0  0  0  0  0  0
    1.1076   -0.9265   -1.8972 C   0  0  0  0  0  0
    0.2276   -1.7092   -1.0050 C   0  0  0  0  0  0
   -0.5020   -1.0411   -0.0148 C   0  0  0  0  0  0
   -1.3815   -1.7487    0.8115 C   0  0  0  0  0  0
   -2.1260   -1.0904    1.8259 N   0  0  0  0  0  0
   -3.0060   -0.0145    1.5115 C   0  0  0  0  0  0
   -3.4728    0.7873    2.5478 C   0  0  0  0  0  0
   -4.3335    1.8360    2.2385 C   0  0  0  0  0  0
   -4.9021    2.8701    3.4908 Cl  0  0  0  0  0  0
   -4.7286    2.0663    0.9328 C   0  0  0  0  0  0
   -4.2504    1.1963   -0.0168 C   0  0  0  0  0  0
   -4.6867    1.3627   -1.6647 Cl  0  0  0  0  0  0
   -3.4125    0.1732    0.2406 N   0  0  0  0  0  0
   -1.5145   -3.1322    0.6508 C   0  0  0  0  0  0
   -0.8076   -3.7941   -0.3555 C   0  0  0  0  0  0
    0.0547   -3.0790   -1.1851 C   0  0  0  0  0  0
    0.7265   -3.7400   -2.1368 F   0  0  0  0  0  0
    1.9919   -0.0186   -1.2961 N   0  0  0  0  0  0
    2.7738   -0.4083   -0.1219 C   0  0  0  0  0  0
    3.2069    0.8042    0.6978 C   0  0  0  0  0  0
    3.8772    1.8685   -0.1712 C   0  0  0  0  0  0
    3.0138    2.2176   -1.3808 C   0  0  0  0  0  0
    2.6342    0.9638   -2.1645 C   0  0  0  0  0  0
   -0.4179    0.0415    0.0775 H   0  0  0  0  0  0
   -1.4645   -0.7470    2.5198 H   0  0  0  0  0  0
   -3.1642    0.6102    3.5714 H   0  0  0  0  0  0
   -5.3880    2.8842    0.6660 H   0  0  0  0  0  0
   -2.2022   -3.6894    1.2825 H   0  0  0  0  0  0
   -0.9375   -4.8610   -0.5149 H   0  0  0  0  0  0
    3.6530   -0.9535   -0.4882 H   0  0  0  0  0  0
    2.2223   -1.1043    0.5149 H   0  0  0  0  0  0
    3.8886    0.4903    1.4973 H   0  0  0  0  0  0
    2.3299    1.2453    1.1845 H   0  0  0  0  0  0
    4.0640    2.7690    0.4254 H   0  0  0  0  0  0
    4.8540    1.5034   -0.5074 H   0  0  0  0  0  0
    3.5440    2.9250   -2.0269 H   0  0  0  0  0  0
    2.1032    2.7236   -1.0336 H   0  0  0  0  0  0
    3.5174    0.4962   -2.6160 H   0  0  0  0  0  0
    1.9574    1.2420   -2.9793 H   0  0  0  0  0  0
  1  2  2  0  0  0
  2  3  1  0  0  0
  2 19  1  0  0  0
  3  4  2  0  0  0
  3 17  1  0  0  0
  4  5  1  0  0  0
  4 25  1  0  0  0
  5  6  1  0  0  0
  5 15  2  0  0  0
  6  7  1  0  0  0
  6 26  1  0  0  0
  7  8  2  0  0  0
  7 14  1  0  0  0
  8  9  1  0  0  0
  8 27  1  0  0  0
  9 10  1  0  0  0
  9 11  2  0  0  0
 11 12  1  0  0  0
 11 28  1  0  0  0
 12 13  1  0  0  0
 12 14  2  0  0  0
 15 16  1  0  0  0
 15 29  1  0  0  0
 16 17  2  0  0  0
 16 30  1  0  0  0
 17 18  1  0  0  0
 19 20  1  0  0  0
 19 24  1  0  0  0
 20 21  1  0  0  0
 20 31  1  0  0  0
 20 32  1  0  0  0
 21 22  1  0  0  0
 21 33  1  0  0  0
 21 34  1  0  0  0
 22 23  1  0  0  0
 22 35  1  0  0  0
 22 36  1  0  0  0
 23 24  1  0  0  0
 23 37  1  0  0  0
 23 38  1  0  0  0
 24 39  1  0  0  0
 24 40  1  0  0  0
M  END
> <energy>
-26.116

> <i_ionizer_Ion_state_n>
0

> <i_ionizer_Tot_Q>
0

> <s_ionizer_Ion_centers>


> <s_ionizer_Ion_types>


> <s_ionizer_Ion_ctrs_in>


> <r_ionizer_Ionization_penalty>
0.00741239

> <r_ionizer_Ionization_penalty_charging>
0

> <r_ionizer_Ionization_penalty_neutral>
0.00741239

$$$$
ZINC001211868333
                    3D
 Schrodinger Suite 2019-4.
 52 54  0  0  1  0            999 V2000
   -3.4980   -0.5664    0.2568 C   0  0  0  0  0  0
   -3.7576   -0.6673   -1.2567 C   0  0  0  0  0  0
   -2.5787   -1.3890   -1.9329 C   0  0  0  0  0  0
   -5.0194   -1.5271   -1.4622 C   0  0  0  0  0  0
   -4.0185    0.7277   -1.8941 C   0  0  0  0  0  0
   -2.8679    1.6797   -1.8692 C   0  0  0  0  0  0
   -2.2727    2.3272   -0.7617 C   0  0  0  0  0  0
   -1.1645    2.9418   -1.2828 C   0  0  0  0  0  0
   -0.0978    3.5549   -0.7173 N   0  0  0  0  0  0
    0.5409    2.9906    0.4150 C   0  0  0  0  0  0
    1.1761    3.8362    1.3329 C   0  0  0  0  0  0
    1.8356    3.3086    2.4478 C   0  0  0  0  0  0
    1.8927    1.9279    2.6312 C   0  0  0  0  0  0
    2.5220    1.4416    3.7082 F   0  0  0  0  0  0
    1.3130    1.0763    1.6970 C   0  0  0  0  0  0
    1.3539   -0.3788    1.9041 C   0  0  0  0  0  0
    0.5272   -0.8595    2.6775 O   0  0  0  0  0  0
    2.3154   -1.1238    1.2235 N   0  0  0  0  0  0
    2.5822   -2.4853    1.6899 C   0  0  0  0  0  0
    4.0656   -2.8312    1.5743 C   0  0  0  0  0  0
    4.5917   -2.6994    0.1456 C   0  0  0  0  0  0
    3.7545   -1.7463   -0.7041 C   0  0  0  0  0  0
    3.1414   -0.6175    0.1234 C   0  0  0  0  0  0
    0.6292    1.6006    0.5999 C   0  0  0  0  0  0
   -1.1846    2.8226   -2.6356 O   0  0  0  0  0  0
   -2.2465    2.0152   -3.0105 N   0  0  0  0  0  0
   -3.5702   -1.5483    0.7384 H   0  0  0  0  0  0
   -2.4950   -0.1888    0.4745 H   0  0  0  0  0  0
   -4.2238    0.0958    0.7416 H   0  0  0  0  0  0
   -2.4177   -2.3792   -1.4904 H   0  0  0  0  0  0
   -2.7646   -1.5289   -3.0032 H   0  0  0  0  0  0
   -1.6412   -0.8339   -1.8281 H   0  0  0  0  0  0
   -5.8895   -1.0741   -0.9744 H   0  0  0  0  0  0
   -5.2545   -1.6399   -2.5267 H   0  0  0  0  0  0
   -4.8892   -2.5326   -1.0444 H   0  0  0  0  0  0
   -4.3220    0.5802   -2.9396 H   0  0  0  0  0  0
   -4.8732    1.2049   -1.3974 H   0  0  0  0  0  0
   -2.5349    2.2596    0.2845 H   0  0  0  0  0  0
    0.6075    3.8591   -1.3880 H   0  0  0  0  0  0
    1.1218    4.9174    1.2098 H   0  0  0  0  0  0
    2.2915    3.9641    3.1839 H   0  0  0  0  0  0
    1.9723   -3.1708    1.0910 H   0  0  0  0  0  0
    2.2663   -2.5927    2.7340 H   0  0  0  0  0  0
    4.6388   -2.1557    2.2227 H   0  0  0  0  0  0
    4.2592   -3.8428    1.9479 H   0  0  0  0  0  0
    4.6194   -3.6835   -0.3390 H   0  0  0  0  0  0
    5.6317   -2.3502    0.1810 H   0  0  0  0  0  0
    2.9476   -2.3197   -1.1786 H   0  0  0  0  0  0
    4.3640   -1.3370   -1.5168 H   0  0  0  0  0  0
    3.9219    0.0174    0.5557 H   0  0  0  0  0  0
    2.5292    0.0065   -0.5340 H   0  0  0  0  0  0
    0.1694    0.9136   -0.1044 H   0  0  0  0  0  0
  1  2  1  0  0  0
  1 27  1  0  0  0
  1 28  1  0  0  0
  1 29  1  0  0  0
  2  3  1  0  0  0
  2  4  1  0  0  0
  2  5  1  0  0  0
  3 30  1  0  0  0
  3 31  1  0  0  0
  3 32  1  0  0  0
  4 33  1  0  0  0
  4 34  1  0  0  0
  4 35  1  0  0  0
  5  6  1  0  0  0
  5 36  1  0  0  0
  5 37  1  0  0  0
  6  7  1  0  0  0
  6 26  2  0  0  0
  7  8  2  0  0  0
  7 38  1  0  0  0
  8  9  1  0  0  0
  8 25  1  0  0  0
  9 10  1  0  0  0
  9 39  1  0  0  0
 10 11  2  0  0  0
 10 24  1  0  0  0
 11 12  1  0  0  0
 11 40  1  0  0  0
 12 13  2  0  0  0
 12 41  1  0  0  0
 13 14  1  0  0  0
 13 15  1  0  0  0
 15 16  1  0  0  0
 15 24  2  0  0  0
 16 17  2  0  0  0
 16 18  1  0  0  0
 18 19  1  0  0  0
 18 23  1  0  0  0
 19 20  1  0  0  0
 19 42  1  0  0  0
 19 43  1  0  0  0
 20 21  1  0  0  0
 20 44  1  0  0  0
 20 45  1  0  0  0
 21 22  1  0  0  0
 21 46  1  0  0  0
 21 47  1  0  0  0
 22 23  1  0  0  0
 22 48  1  0  0  0
 22 49  1  0  0  0
 23 50  1  0  0  0
 23 51  1  0  0  0
 24 52  1  0  0  0
 25 26  1  0  0  0
M  END
> <energy>
29.1376

> <i_ionizer_Ion_state_n>
0

> <i_ionizer_Tot_Q>
0

> <s_ionizer_Ion_centers>


> <s_ionizer_Ion_types>


> <s_ionizer_Ion_ctrs_in>


> <r_ionizer_Ionization_penalty>
0

> <r_ionizer_Ionization_penalty_charging>
0

> <r_ionizer_Ionization_penalty_neutral>
0

$$$$
ZINC001211868369
                    3D
 Schrodinger Suite 2019-4.
 43 45  0  0  1  0            999 V2000
    3.4801    2.2270   -0.5132 O   0  0  0  0  0  0
    2.5126    1.6520   -0.0216 C   0  0  0  0  0  0
    2.6668    0.2396    0.3630 C   0  0  0  0  0  0
    1.9621   -0.7187   -0.3729 C   0  0  0  0  0  0
    2.0146   -2.0661   -0.0051 C   0  0  0  0  0  0
    1.2259   -3.0244   -0.7025 N   0  0  0  0  0  0
   -0.1946   -2.9219   -0.6560 C   0  0  0  0  0  0
   -0.9353   -2.6042   -1.7951 C   0  0  0  0  0  0
   -2.3154   -2.4060   -1.6959 C   0  0  0  0  0  0
   -2.9354   -2.5210   -0.4483 C   0  0  0  0  0  0
   -4.4268   -2.2208   -0.3332 C   0  0  0  0  0  0
   -4.8468   -1.9876    0.9429 F   0  0  0  0  0  0
   -4.7842   -1.1073   -1.0419 F   0  0  0  0  0  0
   -5.2159   -3.2254   -0.8121 F   0  0  0  0  0  0
   -2.2347   -2.8714    0.6699 N   0  0  0  0  0  0
   -0.8982   -3.0579    0.5383 C   0  0  0  0  0  0
    2.8044   -2.4513    1.0847 C   0  0  0  0  0  0
    3.5411   -1.4916    1.7945 C   0  0  0  0  0  0
    3.4706   -0.1490    1.4264 C   0  0  0  0  0  0
    4.1439    0.7534    2.1560 F   0  0  0  0  0  0
    1.2351    2.2064    0.0910 N   0  0  0  0  0  0
    0.1855    1.6378    0.9427 C   0  0  0  0  0  0
   -0.9181    2.6388    1.2709 C   0  0  0  0  0  0
   -1.5169    3.2730    0.0185 C   0  0  0  0  0  0
   -0.4764    3.5432   -1.0718 C   0  0  0  0  0  0
    0.9555    3.4976   -0.5376 C   0  0  0  0  0  0
    1.3379   -0.3981   -1.1997 H   0  0  0  0  0  0
    1.5119   -2.9952   -1.6832 H   0  0  0  0  0  0
   -0.4526   -2.4716   -2.7583 H   0  0  0  0  0  0
   -2.8922   -2.1359   -2.5791 H   0  0  0  0  0  0
   -0.3812   -3.3211    1.4597 H   0  0  0  0  0  0
    2.8388   -3.4927    1.3919 H   0  0  0  0  0  0
    4.1522   -1.7856    2.6437 H   0  0  0  0  0  0
    0.6424    1.2767    1.8691 H   0  0  0  0  0  0
   -0.2423    0.7704    0.4269 H   0  0  0  0  0  0
   -1.7065    2.1555    1.8599 H   0  0  0  0  0  0
   -0.5011    3.4335    1.9024 H   0  0  0  0  0  0
   -2.0032    4.2137    0.2997 H   0  0  0  0  0  0
   -2.3105    2.6363   -0.3910 H   0  0  0  0  0  0
   -0.5860    2.7916   -1.8662 H   0  0  0  0  0  0
   -0.6801    4.5156   -1.5358 H   0  0  0  0  0  0
    1.6665    3.6852   -1.3505 H   0  0  0  0  0  0
    1.1066    4.2777    0.2186 H   0  0  0  0  0  0
  1  2  2  0  0  0
  2  3  1  0  0  0
  2 21  1  0  0  0
  3  4  2  0  0  0
  3 19  1  0  0  0
  4  5  1  0  0  0
  4 27  1  0  0  0
  5  6  1  0  0  0
  5 17  2  0  0  0
  6  7  1  0  0  0
  6 28  1  0  0  0
  7  8  2  0  0  0
  7 16  1  0  0  0
  8  9  1  0  0  0
  8 29  1  0  0  0
  9 10  2  0  0  0
  9 30  1  0  0  0
 10 11  1  0  0  0
 10 15  1  0  0  0
 11 12  1  0  0  0
 11 13  1  0  0  0
 11 14  1  0  0  0
 15 16  2  0  0  0
 16 31  1  0  0  0
 17 18  1  0  0  0
 17 32  1  0  0  0
 18 19  2  0  0  0
 18 33  1  0  0  0
 19 20  1  0  0  0
 21 22  1  0  0  0
 21 26  1  0  0  0
 22 23  1  0  0  0
 22 34  1  0  0  0
 22 35  1  0  0  0
 23 24  1  0  0  0
 23 36  1  0  0  0
 23 37  1  0  0  0
 24 25  1  0  0  0
 24 38  1  0  0  0
 24 39  1  0  0  0
 25 26  1  0  0  0
 25 40  1  0  0  0
 25 41  1  0  0  0
 26 42  1  0  0  0
 26 43  1  0  0  0
M  END
> <energy>
113.975

> <i_ionizer_Ion_state_n>
0

> <i_ionizer_Tot_Q>
0

> <s_ionizer_Ion_centers>


> <s_ionizer_Ion_types>


> <s_ionizer_Ion_ctrs_in>


> <r_ionizer_Ionization_penalty>
0.00741239

> <r_ionizer_Ionization_penalty_charging>
0

> <r_ionizer_Ionization_penalty_neutral>
0.00741239

$$$$
ZINC001211868420
                    3D
 Schrodinger Suite 2019-4.
 43 45  0  0  1  0            999 V2000
    1.2464   -0.6833    2.6028 O   0  0  0  0  0  0
    1.5071   -0.8212    1.4103 C   0  0  0  0  0  0
    0.4561   -1.3664    0.5420 C   0  0  0  0  0  0
   -0.4179   -0.4630   -0.0757 C   0  0  0  0  0  0
   -1.4386   -0.9292   -0.9066 C   0  0  0  0  0  0
   -2.3741   -0.0152   -1.4719 N   0  0  0  0  0  0
   -3.5639    0.3249   -0.7661 C   0  0  0  0  0  0
   -4.7013   -0.4876   -0.8748 C   0  0  0  0  0  0
   -5.8617   -0.3090   -0.1997 N   0  0  0  0  0  0
   -5.8961    0.7168    0.6678 C   0  0  0  0  0  0
   -4.8315    1.5755    0.8685 C   0  0  0  0  0  0
   -3.6458    1.3988    0.1283 C   0  0  0  0  0  0
   -2.5310    2.3847    0.3453 C   0  0  0  0  0  0
   -1.7538    2.6179   -0.7461 F   0  0  0  0  0  0
   -2.9967    3.6179    0.7124 F   0  0  0  0  0  0
   -1.6876    2.0103    1.3433 F   0  0  0  0  0  0
   -1.5769   -2.3151   -1.0936 C   0  0  0  0  0  0
   -0.7032   -3.2148   -0.4723 C   0  0  0  0  0  0
    0.3116   -2.7358    0.3531 C   0  0  0  0  0  0
    1.1582   -3.6049    0.9197 F   0  0  0  0  0  0
    2.6711   -0.3711    0.7981 N   0  0  0  0  0  0
    3.1767   -0.8905   -0.4706 C   0  0  0  0  0  0
    3.7169    0.2316   -1.3499 C   0  0  0  0  0  0
    4.7049    1.1229   -0.5971 C   0  0  0  0  0  0
    4.1219    1.5976    0.7355 C   0  0  0  0  0  0
    3.6274    0.4172    1.5705 C   0  0  0  0  0  0
   -0.2819    0.5999    0.0981 H   0  0  0  0  0  0
   -2.6612   -0.4189   -2.3668 H   0  0  0  0  0  0
   -4.7143   -1.3530   -1.5280 H   0  0  0  0  0  0
   -6.8266    0.8430    1.2125 H   0  0  0  0  0  0
   -4.9222    2.3844    1.5903 H   0  0  0  0  0  0
   -2.3778   -2.7119   -1.7138 H   0  0  0  0  0  0
   -0.8096   -4.2852   -0.6223 H   0  0  0  0  0  0
    3.9743   -1.5965   -0.2192 H   0  0  0  0  0  0
    2.4165   -1.4562   -1.0137 H   0  0  0  0  0  0
    2.8792    0.8448   -1.7068 H   0  0  0  0  0  0
    4.2006   -0.1946   -2.2364 H   0  0  0  0  0  0
    5.6322    0.5664   -0.4163 H   0  0  0  0  0  0
    4.9671    1.9851   -1.2193 H   0  0  0  0  0  0
    3.2882    2.2866    0.5399 H   0  0  0  0  0  0
    4.8785    2.1620    1.2909 H   0  0  0  0  0  0
    4.4579   -0.2452    1.8367 H   0  0  0  0  0  0
    3.1807    0.7804    2.5009 H   0  0  0  0  0  0
  1  2  2  0  0  0
  2  3  1  0  0  0
  2 21  1  0  0  0
  3  4  2  0  0  0
  3 19  1  0  0  0
  4  5  1  0  0  0
  4 27  1  0  0  0
  5  6  1  0  0  0
  5 17  2  0  0  0
  6  7  1  0  0  0
  6 28  1  0  0  0
  7  8  2  0  0  0
  7 12  1  0  0  0
  8  9  1  0  0  0
  8 29  1  0  0  0
  9 10  2  0  0  0
 10 11  1  0  0  0
 10 30  1  0  0  0
 11 12  2  0  0  0
 11 31  1  0  0  0
 12 13  1  0  0  0
 13 14  1  0  0  0
 13 15  1  0  0  0
 13 16  1  0  0  0
 17 18  1  0  0  0
 17 32  1  0  0  0
 18 19  2  0  0  0
 18 33  1  0  0  0
 19 20  1  0  0  0
 21 22  1  0  0  0
 21 26  1  0  0  0
 22 23  1  0  0  0
 22 34  1  0  0  0
 22 35  1  0  0  0
 23 24  1  0  0  0
 23 36  1  0  0  0
 23 37  1  0  0  0
 24 25  1  0  0  0
 24 38  1  0  0  0
 24 39  1  0  0  0
 25 26  1  0  0  0
 25 40  1  0  0  0
 25 41  1  0  0  0
 26 42  1  0  0  0
 26 43  1  0  0  0
M  END
> <energy>
62.4376

> <i_ionizer_Ion_state_n>
0

> <i_ionizer_Tot_Q>
0

> <s_ionizer_Ion_centers>


> <s_ionizer_Ion_types>


> <s_ionizer_Ion_ctrs_in>


> <r_ionizer_Ionization_penalty>
0.00741239

> <r_ionizer_Ionization_penalty_charging>
0

> <r_ionizer_Ionization_penalty_neutral>
0.00741239

$$$$
ZINC001211868430
                    3D
 Schrodinger Suite 2019-4.
 40 42  0  0  1  0            999 V2000
    2.1081   -1.8062    1.9739 O   0  0  0  0  0  0
    1.6003   -1.2131    1.0279 C   0  0  0  0  0  0
    0.4730   -1.8726    0.3490 C   0  0  0  0  0  0
   -0.8035   -1.2993    0.4579 C   0  0  0  0  0  0
   -1.9303   -1.9491   -0.0608 C   0  0  0  0  0  0
   -3.2443   -1.4307    0.0848 N   0  0  0  0  0  0
   -3.5546   -0.0502    0.1829 C   0  0  0  0  0  0
   -3.8658    0.6561   -0.9881 C   0  0  0  0  0  0
   -4.1235    2.0246   -0.9296 C   0  0  0  0  0  0
   -4.5284    2.8888   -2.3571 Cl  0  0  0  0  0  0
   -4.0406    2.6615    0.2971 C   0  0  0  0  0  0
   -3.7293    2.0317    1.4530 N   0  0  0  0  0  0
   -3.4950    0.6985    1.3684 C   0  0  0  0  0  0
   -3.1506   -0.0156    2.8967 Cl  0  0  0  0  0  0
   -1.7496   -3.2111   -0.6542 C   0  0  0  0  0  0
   -0.4731   -3.7734   -0.7850 C   0  0  0  0  0  0
    0.6347   -3.1004   -0.2796 C   0  0  0  0  0  0
    1.8471   -3.6533   -0.4227 F   0  0  0  0  0  0
    1.9558    0.0776    0.6364 N   0  0  0  0  0  0
    2.7934    0.8801    1.5238 C   0  0  0  0  0  0
    4.0822    1.3125    0.8339 C   0  0  0  0  0  0
    3.7934    1.9988   -0.5001 C   0  0  0  0  0  0
    2.8837    1.1401   -1.3794 C   0  0  0  0  0  0
    1.6155    0.6964   -0.6457 C   0  0  0  0  0  0
   -0.8940   -0.3502    0.9819 H   0  0  0  0  0  0
   -3.8776   -1.8965   -0.5651 H   0  0  0  0  0  0
   -3.8990    0.1400   -1.9437 H   0  0  0  0  0  0
   -4.2292    3.7280    0.3903 H   0  0  0  0  0  0
   -2.6037   -3.7688   -1.0307 H   0  0  0  0  0  0
   -0.3406   -4.7419   -1.2618 H   0  0  0  0  0  0
    2.2054    1.7622    1.8053 H   0  0  0  0  0  0
    3.0258    0.3409    2.4472 H   0  0  0  0  0  0
    4.6449    1.9910    1.4856 H   0  0  0  0  0  0
    4.7173    0.4354    0.6598 H   0  0  0  0  0  0
    3.3265    2.9737   -0.3190 H   0  0  0  0  0  0
    4.7395    2.1934   -1.0207 H   0  0  0  0  0  0
    3.4424    0.2522   -1.7001 H   0  0  0  0  0  0
    2.6139    1.6892   -2.2875 H   0  0  0  0  0  0
    1.0623    0.0027   -1.2880 H   0  0  0  0  0  0
    0.9676    1.5568   -0.4369 H   0  0  0  0  0  0
  1  2  2  0  0  0
  2  3  1  0  0  0
  2 19  1  0  0  0
  3  4  2  0  0  0
  3 17  1  0  0  0
  4  5  1  0  0  0
  4 25  1  0  0  0
  5  6  1  0  0  0
  5 15  2  0  0  0
  6  7  1  0  0  0
  6 26  1  0  0  0
  7  8  2  0  0  0
  7 13  1  0  0  0
  8  9  1  0  0  0
  8 27  1  0  0  0
  9 10  1  0  0  0
  9 11  2  0  0  0
 11 12  1  0  0  0
 11 28  1  0  0  0
 12 13  2  0  0  0
 13 14  1  0  0  0
 15 16  1  0  0  0
 15 29  1  0  0  0
 16 17  2  0  0  0
 16 30  1  0  0  0
 17 18  1  0  0  0
 19 20  1  0  0  0
 19 24  1  0  0  0
 20 21  1  0  0  0
 20 31  1  0  0  0
 20 32  1  0  0  0
 21 22  1  0  0  0
 21 33  1  0  0  0
 21 34  1  0  0  0
 22 23  1  0  0  0
 22 35  1  0  0  0
 22 36  1  0  0  0
 23 24  1  0  0  0
 23 37  1  0  0  0
 23 38  1  0  0  0
 24 39  1  0  0  0
 24 40  1  0  0  0
M  END
> <energy>
68.5677

> <i_ionizer_Ion_state_n>
0

> <i_ionizer_Tot_Q>
0

> <s_ionizer_Ion_centers>


> <s_ionizer_Ion_types>


> <s_ionizer_Ion_ctrs_in>


> <r_ionizer_Ionization_penalty>
0.00741239

> <r_ionizer_Ionization_penalty_charging>
0

> <r_ionizer_Ionization_penalty_neutral>
0.00741239

$$$$
ZINC001211868618
                    3D
 Schrodinger Suite 2019-4.
 43 45  0  0  1  0            999 V2000
    1.6751    1.8888    2.3296 O   0  0  0  0  0  0
    1.7356    1.5099    1.1635 C   0  0  0  0  0  0
    0.6579    1.9088    0.2469 C   0  0  0  0  0  0
   -0.2433    0.9225   -0.1497 C   0  0  0  0  0  0
   -1.3062    1.2388   -1.0002 C   0  0  0  0  0  0
   -2.2495    0.2263   -1.3293 N   0  0  0  0  0  0
   -3.2135   -0.1763   -0.3591 C   0  0  0  0  0  0
   -3.6703    0.7649    0.4995 N   0  0  0  0  0  0
   -4.6238    0.4450    1.3979 C   0  0  0  0  0  0
   -5.1952   -0.8073    1.4802 C   0  0  0  0  0  0
   -4.7403   -1.7774    0.6001 C   0  0  0  0  0  0
   -3.7250   -1.4779   -0.3273 C   0  0  0  0  0  0
   -3.1852   -2.5751   -1.1871 C   0  0  0  0  0  0
   -1.9574   -2.3028   -1.7230 F   0  0  0  0  0  0
   -3.0151   -3.7422   -0.5019 F   0  0  0  0  0  0
   -3.9940   -2.8746   -2.2376 F   0  0  0  0  0  0
   -1.4743    2.5620   -1.4245 C   0  0  0  0  0  0
   -0.5768    3.5535   -1.0109 C   0  0  0  0  0  0
    0.4848    3.2226   -0.1711 C   0  0  0  0  0  0
    1.3479    4.1780    0.1926 F   0  0  0  0  0  0
    2.6936    0.6108    0.6893 N   0  0  0  0  0  0
    3.6119    0.0237    1.6600 C   0  0  0  0  0  0
    4.5770   -0.9944    1.0513 C   0  0  0  0  0  0
    3.8995   -1.8950    0.0208 C   0  0  0  0  0  0
    3.0887   -1.1132   -1.0134 C   0  0  0  0  0  0
    2.9969    0.3835   -0.7178 C   0  0  0  0  0  0
   -0.1246   -0.0910    0.2234 H   0  0  0  0  0  0
   -1.7044   -0.5963   -1.5991 H   0  0  0  0  0  0
   -4.9200    1.2473    2.0652 H   0  0  0  0  0  0
   -5.9701   -1.0218    2.2069 H   0  0  0  0  0  0
   -5.1575   -2.7826    0.6473 H   0  0  0  0  0  0
   -2.3184    2.8233   -2.0570 H   0  0  0  0  0  0
   -0.7079    4.5821   -1.3314 H   0  0  0  0  0  0
    3.0094   -0.4532    2.4433 H   0  0  0  0  0  0
    4.1747    0.8338    2.1306 H   0  0  0  0  0  0
    5.4072   -0.4686    0.5624 H   0  0  0  0  0  0
    5.0250   -1.5993    1.8481 H   0  0  0  0  0  0
    4.6520   -2.5078   -0.4908 H   0  0  0  0  0  0
    3.2423   -2.6062    0.5384 H   0  0  0  0  0  0
    3.5118   -1.2603   -2.0137 H   0  0  0  0  0  0
    2.0768   -1.5378   -1.0504 H   0  0  0  0  0  0
    2.2592    0.8444   -1.3773 H   0  0  0  0  0  0
    3.9456    0.8909   -0.9247 H   0  0  0  0  0  0
  1  2  2  0  0  0
  2  3  1  0  0  0
  2 21  1  0  0  0
  3  4  2  0  0  0
  3 19  1  0  0  0
  4  5  1  0  0  0
  4 27  1  0  0  0
  5  6  1  0  0  0
  5 17  2  0  0  0
  6  7  1  0  0  0
  6 28  1  0  0  0
  7  8  2  0  0  0
  7 12  1  0  0  0
  8  9  1  0  0  0
  9 10  2  0  0  0
  9 29  1  0  0  0
 10 11  1  0  0  0
 10 30  1  0  0  0
 11 12  2  0  0  0
 11 31  1  0  0  0
 12 13  1  0  0  0
 13 14  1  0  0  0
 13 15  1  0  0  0
 13 16  1  0  0  0
 17 18  1  0  0  0
 17 32  1  0  0  0
 18 19  2  0  0  0
 18 33  1  0  0  0
 19 20  1  0  0  0
 21 22  1  0  0  0
 21 26  1  0  0  0
 22 23  1  0  0  0
 22 34  1  0  0  0
 22 35  1  0  0  0
 23 24  1  0  0  0
 23 36  1  0  0  0
 23 37  1  0  0  0
 24 25  1  0  0  0
 24 38  1  0  0  0
 24 39  1  0  0  0
 25 26  1  0  0  0
 25 40  1  0  0  0
 25 41  1  0  0  0
 26 42  1  0  0  0
 26 43  1  0  0  0
M  END
> <energy>
21.2479

> <i_ionizer_Ion_state_n>
0

> <i_ionizer_Tot_Q>
0

> <s_ionizer_Ion_centers>


> <s_ionizer_Ion_types>


> <s_ionizer_Ion_ctrs_in>


> <r_ionizer_Ionization_penalty>
0.00741239

> <r_ionizer_Ionization_penalty_charging>
0

> <r_ionizer_Ionization_penalty_neutral>
0.00741239

$$$$
ZINC001211868637
                    3D
 Schrodinger Suite 2019-4.
 40 42  0  0  1  0            999 V2000
   -1.3195    1.3493   -2.2943 O   0  0  0  0  0  0
   -1.1375    1.4594   -1.0792 C   0  0  0  0  0  0
   -1.7257    0.4386   -0.2057 C   0  0  0  0  0  0
   -0.9230   -0.6821    0.0349 C   0  0  0  0  0  0
   -1.3969   -1.7707    0.7647 C   0  0  0  0  0  0
   -0.6645   -2.9767    0.8503 N   0  0  0  0  0  0
    0.2687   -3.5303   -0.0689 C   0  0  0  0  0  0
    0.2144   -3.1938   -1.4324 C   0  0  0  0  0  0
    1.1134   -3.7642   -2.3265 C   0  0  0  0  0  0
    2.0701   -4.6335   -1.9677 N   0  0  0  0  0  0
    2.1167   -4.9451   -0.6507 C   0  0  0  0  0  0
    3.4073   -6.0370   -0.2994 Cl  0  0  0  0  0  0
    1.2484   -4.4519    0.3315 C   0  0  0  0  0  0
    1.3468   -4.9459    1.9863 Cl  0  0  0  0  0  0
   -2.6804   -1.6656    1.3257 C   0  0  0  0  0  0
   -3.4805   -0.5278    1.1031 C   0  0  0  0  0  0
   -3.0065    0.5151    0.3112 C   0  0  0  0  0  0
   -3.7900    1.5751    0.0770 F   0  0  0  0  0  0
   -0.2441    2.3333   -0.4786 N   0  0  0  0  0  0
   -0.4290    2.7615    0.9088 C   0  0  0  0  0  0
    0.6700    3.7091    1.3951 C   0  0  0  0  0  0
    2.0624    3.3410    0.8873 C   0  0  0  0  0  0
    2.1162    3.0022   -0.6061 C   0  0  0  0  0  0
    0.7470    3.0483   -1.2816 C   0  0  0  0  0  0
    0.0716   -0.7024   -0.4039 H   0  0  0  0  0  0
   -0.6031   -3.3532    1.7966 H   0  0  0  0  0  0
   -0.5351   -2.5112   -1.8284 H   0  0  0  0  0  0
    1.0680   -3.5270   -3.3857 H   0  0  0  0  0  0
   -3.1074   -2.5048    1.8718 H   0  0  0  0  0  0
   -4.4903   -0.4751    1.5047 H   0  0  0  0  0  0
   -1.4097    3.2629    0.9798 H   0  0  0  0  0  0
   -0.4885    1.8788    1.5587 H   0  0  0  0  0  0
    0.4293    4.7322    1.0758 H   0  0  0  0  0  0
    0.6624    3.7336    2.4926 H   0  0  0  0  0  0
    2.7539    4.1656    1.0983 H   0  0  0  0  0  0
    2.4591    2.5026    1.4727 H   0  0  0  0  0  0
    2.7997    3.6897   -1.1191 H   0  0  0  0  0  0
    2.5668    2.0050   -0.7104 H   0  0  0  0  0  0
    0.8232    2.6084   -2.2818 H   0  0  0  0  0  0
    0.4163    4.0869   -1.4067 H   0  0  0  0  0  0
  1  2  2  0  0  0
  2  3  1  0  0  0
  2 19  1  0  0  0
  3  4  2  0  0  0
  3 17  1  0  0  0
  4  5  1  0  0  0
  4 25  1  0  0  0
  5  6  1  0  0  0
  5 15  2  0  0  0
  6  7  1  0  0  0
  6 26  1  0  0  0
  7  8  2  0  0  0
  7 13  1  0  0  0
  8  9  1  0  0  0
  8 27  1  0  0  0
  9 10  2  0  0  0
  9 28  1  0  0  0
 10 11  1  0  0  0
 11 12  1  0  0  0
 11 13  2  0  0  0
 13 14  1  0  0  0
 15 16  1  0  0  0
 15 29  1  0  0  0
 16 17  2  0  0  0
 16 30  1  0  0  0
 17 18  1  0  0  0
 19 20  1  0  0  0
 19 24  1  0  0  0
 20 21  1  0  0  0
 20 31  1  0  0  0
 20 32  1  0  0  0
 21 22  1  0  0  0
 21 33  1  0  0  0
 21 34  1  0  0  0
 22 23  1  0  0  0
 22 35  1  0  0  0
 22 36  1  0  0  0
 23 24  1  0  0  0
 23 37  1  0  0  0
 23 38  1  0  0  0
 24 39  1  0  0  0
 24 40  1  0  0  0
M  END
> <energy>
58.9268

> <i_ionizer_Ion_state_n>
0

> <i_ionizer_Tot_Q>
0

> <s_ionizer_Ion_centers>


> <s_ionizer_Ion_types>


> <s_ionizer_Ion_ctrs_in>


> <r_ionizer_Ionization_penalty>
0.00741239

> <r_ionizer_Ionization_penalty_charging>
0

> <r_ionizer_Ionization_penalty_neutral>
0.00741239

$$$$
ZINC001211869030
                    3D
 Schrodinger Suite 2019-4.
 46 49  0  0  1  0            999 V2000
   -5.1605   -0.5517    2.3138 C   0  0  0  0  0  0
   -4.4751    0.0445    1.1138 C   0  0  0  0  0  0
   -5.0108    1.2088    0.5402 C   0  0  0  0  0  0
   -4.4112    1.7929   -0.5716 C   0  0  0  0  0  0
   -3.2602    1.2273   -1.1159 C   0  0  0  0  0  0
   -2.6906    0.0635   -0.5633 C   0  0  0  0  0  0
   -1.4599   -0.4488   -1.1582 C   0  0  0  0  0  0
   -1.1816   -0.3712   -2.4719 N   0  0  0  0  0  0
    0.1120   -0.8797   -2.5700 O   0  0  0  0  0  0
    0.4947   -1.2085   -1.3036 C   0  0  0  0  0  0
    1.8907   -1.7385   -1.1323 C   0  0  1  0  0  0
    2.0930   -2.4056    1.2002 C   0  0  0  0  0  0
    3.4219   -1.6904    1.4292 C   0  0  0  0  0  0
    4.0002   -1.0357    0.1742 C   0  0  0  0  0  0
    2.9532   -0.6150   -0.8779 C   0  0  2  0  0  0
    2.4230    0.8004   -0.6577 C   0  0  0  0  0  0
    2.4715    1.7218   -1.7200 C   0  0  0  0  0  0
    1.9566    3.0128   -1.5787 C   0  0  0  0  0  0
    1.3832    3.4064   -0.3740 C   0  0  0  0  0  0
    1.3256    2.5092    0.6883 C   0  0  0  0  0  0
    1.8407    1.2170    0.5474 C   0  0  0  0  0  0
   -0.4422   -0.9899   -0.4085 N   0  0  0  0  0  0
   -3.3152   -0.5341    0.5506 C   0  0  0  0  0  0
   -2.7176   -2.0171    1.2390 Cl  0  0  0  0  0  0
   -6.0112    0.0587    2.6349 H   0  0  0  0  0  0
   -5.5419   -1.5497    2.0770 H   0  0  0  0  0  0
   -4.4662   -0.6102    3.1582 H   0  0  0  0  0  0
   -5.9047    1.6688    0.9579 H   0  0  0  0  0  0
   -4.8361    2.6925   -1.0120 H   0  0  0  0  0  0
   -2.7963    1.7106   -1.9751 H   0  0  0  0  0  0
    2.1567   -2.1980   -2.0949 H   0  0  0  0  0  0
    1.2523   -1.7599    1.4739 H   0  0  0  0  0  0
    2.0350   -3.2654    1.8772 H   0  0  0  0  0  0
    4.1622   -2.4026    1.8162 H   0  0  0  0  0  0
    3.2939   -0.9418    2.2195 H   0  0  0  0  0  0
    4.6496   -0.1966    0.4524 H   0  0  0  0  0  0
    4.6620   -1.7754   -0.3006 H   0  0  0  0  0  0
    3.5370   -0.5568   -1.8106 H   0  0  0  0  0  0
    2.9049    1.4394   -2.6769 H   0  0  0  0  0  0
    1.9979    3.7068   -2.4135 H   0  0  0  0  0  0
    0.9749    4.4070   -0.2651 H   0  0  0  0  0  0
    0.8676    2.8085    1.6275 H   0  0  0  0  0  0
    1.7490    0.5419    1.3916 H   0  0  0  0  0  0
    1.9648   -2.8880   -0.1775 N   0  3  0  0  0  0
    1.1101   -3.4510   -0.2598 H   0  0  0  0  0  0
    2.7801   -3.4675   -0.4093 H   0  0  0  0  0  0
  1  2  1  0  0  0
  1 25  1  0  0  0
  1 26  1  0  0  0
  1 27  1  0  0  0
  2  3  2  0  0  0
  2 23  1  0  0  0
  3  4  1  0  0  0
  3 28  1  0  0  0
  4  5  2  0  0  0
  4 29  1  0  0  0
  5  6  1  0  0  0
  5 30  1  0  0  0
  6  7  1  0  0  0
  6 23  2  0  0  0
  7  8  2  0  0  0
  7 22  1  0  0  0
  8  9  1  0  0  0
  9 10  1  0  0  0
 10 11  1  0  0  0
 10 22  2  0  0  0
 11 15  1  0  0  0
 11 31  1  0  0  0
 11 44  1  0  0  0
 12 13  1  0  0  0
 12 32  1  0  0  0
 12 33  1  0  0  0
 12 44  1  0  0  0
 13 14  1  0  0  0
 13 34  1  0  0  0
 13 35  1  0  0  0
 14 15  1  0  0  0
 14 36  1  0  0  0
 14 37  1  0  0  0
 15 16  1  0  0  0
 15 38  1  0  0  0
 16 17  2  0  0  0
 16 21  1  0  0  0
 17 18  1  0  0  0
 17 39  1  0  0  0
 18 19  2  0  0  0
 18 40  1  0  0  0
 19 20  1  0  0  0
 19 41  1  0  0  0
 20 21  2  0  0  0
 20 42  1  0  0  0
 21 43  1  0  0  0
 23 24  1  0  0  0
 44 45  1  0  0  0
 44 46  1  0  0  0
M  CHG  1  44   1
M  END
> <energy>
106.662

> <i_ionizer_Ion_state_n>
1

> <i_ionizer_Tot_Q>
1

> <s_ionizer_Ion_centers>
44

> <s_ionizer_Ion_types>
N5

> <s_ionizer_Ion_ctrs_in>
12

> <r_ionizer_Ionization_penalty>
0.000148807

> <r_ionizer_Ionization_penalty_charging>
0.000148807

> <r_ionizer_Ionization_penalty_neutral>
0

$$$$
ZINC001211869032
                    3D
 Schrodinger Suite 2019-4.
 46 49  0  0  1  0            999 V2000
   -2.4983   -5.6810   -2.4346 C   0  0  0  0  0  0
   -2.6406   -4.4645   -1.5581 C   0  0  0  0  0  0
   -3.5791   -4.5042   -0.5156 C   0  0  0  0  0  0
   -3.7519   -3.4102    0.3218 C   0  0  0  0  0  0
   -2.9925   -2.2606    0.1217 C   0  0  0  0  0  0
   -2.0393   -2.1782   -0.9159 C   0  0  0  0  0  0
   -1.3086   -0.9178   -1.0401 C   0  0  0  0  0  0
   -0.8260   -0.4002   -2.1818 N   0  0  0  0  0  0
   -0.3000    0.8319   -1.8013 O   0  0  0  0  0  0
   -0.5331    0.9548   -0.4637 C   0  0  0  0  0  0
   -0.0934    2.2212    0.2107 C   0  0  1  0  0  0
   -0.3731    4.6374    0.2804 C   0  0  0  0  0  0
    1.1368    4.8576    0.2823 C   0  0  0  0  0  0
    1.8647    3.6723    0.9085 C   0  0  0  0  0  0
    1.4558    2.3549    0.2240 C   0  0  1  0  0  0
    2.1991    1.1972    0.8756 C   0  0  0  0  0  0
    1.7767    0.6219    2.0835 C   0  0  0  0  0  0
    2.4832   -0.4409    2.6493 C   0  0  0  0  0  0
    3.6296   -0.9278    2.0279 C   0  0  0  0  0  0
    4.0656   -0.3609    0.8337 C   0  0  0  0  0  0
    3.3550    0.6931    0.2597 C   0  0  0  0  0  0
   -1.1448   -0.0866    0.0514 N   0  0  0  0  0  0
   -1.8576   -3.2993   -1.7504 C   0  0  0  0  0  0
   -0.6430   -3.3288   -2.9946 Cl  0  0  0  0  0  0
   -1.4900   -6.0972   -2.3505 H   0  0  0  0  0  0
   -3.2018   -6.4702   -2.1424 H   0  0  0  0  0  0
   -2.7132   -5.4314   -3.4781 H   0  0  0  0  0  0
   -4.1815   -5.3953   -0.3473 H   0  0  0  0  0  0
   -4.4790   -3.4478    1.1286 H   0  0  0  0  0  0
   -3.1503   -1.4124    0.7871 H   0  0  0  0  0  0
   -0.4690    2.1662    1.2421 H   0  0  0  0  0  0
   -0.8662    5.4781   -0.2182 H   0  0  0  0  0  0
   -0.7539    4.6141    1.3076 H   0  0  0  0  0  0
    1.4924    5.0016   -0.7447 H   0  0  0  0  0  0
    1.3774    5.7719    0.8351 H   0  0  0  0  0  0
    1.6299    3.6309    1.9809 H   0  0  0  0  0  0
    2.9484    3.8235    0.8311 H   0  0  0  0  0  0
    1.7869    2.4104   -0.8248 H   0  0  0  0  0  0
    0.8929    0.9845    2.6021 H   0  0  0  0  0  0
    2.1336   -0.8884    3.5765 H   0  0  0  0  0  0
    4.1780   -1.7535    2.4727 H   0  0  0  0  0  0
    4.9578   -0.7443    0.3443 H   0  0  0  0  0  0
    3.7151    1.1159   -0.6766 H   0  0  0  0  0  0
   -0.7502    3.4033   -0.4215 N   0  3  0  0  0  0
   -0.4553    3.4692   -1.4028 H   0  0  0  0  0  0
   -1.7694    3.2875   -0.3774 H   0  0  0  0  0  0
  1  2  1  0  0  0
  1 25  1  0  0  0
  1 26  1  0  0  0
  1 27  1  0  0  0
  2  3  2  0  0  0
  2 23  1  0  0  0
  3  4  1  0  0  0
  3 28  1  0  0  0
  4  5  2  0  0  0
  4 29  1  0  0  0
  5  6  1  0  0  0
  5 30  1  0  0  0
  6  7  1  0  0  0
  6 23  2  0  0  0
  7  8  2  0  0  0
  7 22  1  0  0  0
  8  9  1  0  0  0
  9 10  1  0  0  0
 10 11  1  0  0  0
 10 22  2  0  0  0
 11 15  1  0  0  0
 11 31  1  0  0  0
 11 44  1  0  0  0
 12 13  1  0  0  0
 12 32  1  0  0  0
 12 33  1  0  0  0
 12 44  1  0  0  0
 13 14  1  0  0  0
 13 34  1  0  0  0
 13 35  1  0  0  0
 14 15  1  0  0  0
 14 36  1  0  0  0
 14 37  1  0  0  0
 15 16  1  0  0  0
 15 38  1  0  0  0
 16 17  2  0  0  0
 16 21  1  0  0  0
 17 18  1  0  0  0
 17 39  1  0  0  0
 18 19  2  0  0  0
 18 40  1  0  0  0
 19 20  1  0  0  0
 19 41  1  0  0  0
 20 21  2  0  0  0
 20 42  1  0  0  0
 21 43  1  0  0  0
 23 24  1  0  0  0
 44 45  1  0  0  0
 44 46  1  0  0  0
M  CHG  1  44   1
M  END
> <energy>
97.4376

> <i_ionizer_Ion_state_n>
1

> <i_ionizer_Tot_Q>
1

> <s_ionizer_Ion_centers>
44

> <s_ionizer_Ion_types>
N5

> <s_ionizer_Ion_ctrs_in>
12

> <r_ionizer_Ionization_penalty>
0.000148807

> <r_ionizer_Ionization_penalty_charging>
0.000148807

> <r_ionizer_Ionization_penalty_neutral>
0

$$$$
ZINC001211869034
                    3D
 Schrodinger Suite 2019-4.
 46 49  0  0  1  0            999 V2000
   -2.9927    4.0444   -1.9049 C   0  0  0  0  0  0
   -3.2442    2.9720   -0.8930 C   0  0  0  0  0  0
   -3.5102    3.3033    0.4445 C   0  0  0  0  0  0
   -3.6070    2.3149    1.4220 C   0  0  0  0  0  0
   -3.3615    0.9839    1.0992 C   0  0  0  0  0  0
   -3.0629    0.6438   -0.2330 C   0  0  0  0  0  0
   -2.3275   -0.5966   -0.4467 C   0  0  0  0  0  0
   -2.5383   -1.7490    0.2030 N   0  0  0  0  0  0
   -1.3173   -2.4356    0.0474 O   0  0  0  0  0  0
   -0.5137   -1.6225   -0.7035 C   0  0  0  0  0  0
    0.9286   -2.0100   -0.8645 C   0  0  2  0  0  0
    2.6267   -2.3810   -2.6052 C   0  0  0  0  0  0
    3.4350   -1.1707   -2.1348 C   0  0  0  0  0  0
    3.2842   -1.0050   -0.6322 C   0  0  0  0  0  0
    1.8039   -0.8381   -0.2812 C   0  0  2  0  0  0
    1.6652   -0.6700    1.2297 C   0  0  0  0  0  0
    1.4296    0.6062    1.7644 C   0  0  0  0  0  0
    1.1843    0.7608    3.1324 C   0  0  0  0  0  0
    1.2017   -0.3436    3.9814 C   0  0  0  0  0  0
    1.4787   -1.6127    3.4748 C   0  0  0  0  0  0
    1.7233   -1.7675    2.1072 C   0  0  0  0  0  0
   -1.1082   -0.5167   -1.0806 N   0  0  0  0  0  0
   -3.1014    1.6195   -1.2357 C   0  0  0  0  0  0
   -2.9292    1.1769   -2.9055 Cl  0  0  0  0  0  0
   -1.9628    3.9481   -2.2680 H   0  0  0  0  0  0
   -3.0881    5.0384   -1.4528 H   0  0  0  0  0  0
   -3.6821    3.9761   -2.7493 H   0  0  0  0  0  0
   -3.5985    4.3470    0.7546 H   0  0  0  0  0  0
   -3.7785    2.5922    2.4609 H   0  0  0  0  0  0
   -3.2998    0.2450    1.8986 H   0  0  0  0  0  0
    1.1130   -2.9397   -0.3053 H   0  0  0  0  0  0
    3.0450   -3.2919   -2.1445 H   0  0  0  0  0  0
    2.7352   -2.5031   -3.6892 H   0  0  0  0  0  0
    4.4979   -1.2978   -2.3698 H   0  0  0  0  0  0
    3.1204   -0.2487   -2.6416 H   0  0  0  0  0  0
    3.7151   -1.8730   -0.1155 H   0  0  0  0  0  0
    3.8703   -0.1380   -0.2933 H   0  0  0  0  0  0
    1.4666    0.0953   -0.7636 H   0  0  0  0  0  0
    1.3873    1.4796    1.1138 H   0  0  0  0  0  0
    0.9561    1.7460    3.5328 H   0  0  0  0  0  0
    0.9948   -0.2269    5.0380 H   0  0  0  0  0  0
    1.4876   -2.4789    4.1301 H   0  0  0  0  0  0
    1.9284   -2.7700    1.7337 H   0  0  0  0  0  0
    1.1856   -2.2754   -2.3140 N   0  3  0  0  0  0
    0.7284   -3.1565   -2.5767 H   0  0  0  0  0  0
    0.7904   -1.5064   -2.8678 H   0  0  0  0  0  0
  1  2  1  0  0  0
  1 25  1  0  0  0
  1 26  1  0  0  0
  1 27  1  0  0  0
  2  3  2  0  0  0
  2 23  1  0  0  0
  3  4  1  0  0  0
  3 28  1  0  0  0
  4  5  2  0  0  0
  4 29  1  0  0  0
  5  6  1  0  0  0
  5 30  1  0  0  0
  6  7  1  0  0  0
  6 23  2  0  0  0
  7  8  2  0  0  0
  7 22  1  0  0  0
  8  9  1  0  0  0
  9 10  1  0  0  0
 10 11  1  0  0  0
 10 22  2  0  0  0
 11 15  1  0  0  0
 11 31  1  0  0  0
 11 44  1  0  0  0
 12 13  1  0  0  0
 12 32  1  0  0  0
 12 33  1  0  0  0
 12 44  1  0  0  0
 13 14  1  0  0  0
 13 34  1  0  0  0
 13 35  1  0  0  0
 14 15  1  0  0  0
 14 36  1  0  0  0
 14 37  1  0  0  0
 15 16  1  0  0  0
 15 38  1  0  0  0
 16 17  2  0  0  0
 16 21  1  0  0  0
 17 18  1  0  0  0
 17 39  1  0  0  0
 18 19  2  0  0  0
 18 40  1  0  0  0
 19 20  1  0  0  0
 19 41  1  0  0  0
 20 21  2  0  0  0
 20 42  1  0  0  0
 21 43  1  0  0  0
 23 24  1  0  0  0
 44 45  1  0  0  0
 44 46  1  0  0  0
M  CHG  1  44   1
M  END
> <energy>
108.198

> <i_ionizer_Ion_state_n>
1

> <i_ionizer_Tot_Q>
1

> <s_ionizer_Ion_centers>
44

> <s_ionizer_Ion_types>
N5

> <s_ionizer_Ion_ctrs_in>
12

> <r_ionizer_Ionization_penalty>
0.000148807

> <r_ionizer_Ionization_penalty_charging>
0.000148807

> <r_ionizer_Ionization_penalty_neutral>
0

$$$$
ZINC001211869035
                    3D
 Schrodinger Suite 2019-4.
 46 49  0  0  1  0            999 V2000
   -6.0052   -0.5911    2.0211 C   0  0  0  0  0  0
   -5.0673   -0.1837    0.9157 C   0  0  0  0  0  0
   -5.5111    0.7253   -0.0545 C   0  0  0  0  0  0
   -4.6754    1.1141   -1.0995 C   0  0  0  0  0  0
   -3.3723    0.6193   -1.1703 C   0  0  0  0  0  0
   -2.8914   -0.2747   -0.1988 C   0  0  0  0  0  0
   -1.5050   -0.7025   -0.2748 C   0  0  0  0  0  0
   -0.9475   -1.2369   -1.3729 N   0  0  0  0  0  0
    0.3800   -1.4598   -0.9920 O   0  0  0  0  0  0
    0.4948   -0.9900    0.2866 C   0  0  0  0  0  0
    1.8533   -0.9839    0.9224 C   0  0  2  0  0  0
    3.7831   -2.3234    1.5150 C   0  0  0  0  0  0
    4.6894   -1.7567    0.4158 C   0  0  0  0  0  0
    3.9646   -0.7687   -0.5034 C   0  0  0  0  0  0
    2.8555    0.0094    0.2413 C   0  0  1  0  0  0
    2.2168    1.1291   -0.5782 C   0  0  0  0  0  0
    2.2134    1.1145   -1.9810 C   0  0  0  0  0  0
    1.6307    2.1511   -2.7074 C   0  0  0  0  0  0
    1.0165    3.2079   -2.0476 C   0  0  0  0  0  0
    0.9676    3.2161   -0.6573 C   0  0  0  0  0  0
    1.5638    2.1861    0.0762 C   0  0  0  0  0  0
   -0.6301   -0.5191    0.7713 N   0  0  0  0  0  0
   -3.7496   -0.6881    0.8362 C   0  0  0  0  0  0
   -3.2224   -1.8524    2.0174 Cl  0  0  0  0  0  0
   -5.5768   -0.3250    2.9935 H   0  0  0  0  0  0
   -6.9756   -0.0865    1.9371 H   0  0  0  0  0  0
   -6.1940   -1.6694    1.9832 H   0  0  0  0  0  0
   -6.5156    1.1469   -0.0000 H   0  0  0  0  0  0
   -5.0252    1.8178   -1.8484 H   0  0  0  0  0  0
   -2.7206    0.9465   -1.9771 H   0  0  0  0  0  0
    1.6965   -0.6110    1.9491 H   0  0  0  0  0  0
    4.1094   -3.3378    1.7722 H   0  0  0  0  0  0
    3.8702   -1.7259    2.4335 H   0  0  0  0  0  0
    5.5435   -1.2518    0.8848 H   0  0  0  0  0  0
    5.0996   -2.5719   -0.1918 H   0  0  0  0  0  0
    4.6903   -0.0774   -0.9466 H   0  0  0  0  0  0
    3.5273   -1.3368   -1.3361 H   0  0  0  0  0  0
    3.3899    0.5184    1.0619 H   0  0  0  0  0  0
    2.6482    0.2852   -2.5310 H   0  0  0  0  0  0
    1.6476    2.1166   -3.7912 H   0  0  0  0  0  0
    0.5768    4.0214   -2.6155 H   0  0  0  0  0  0
    0.4563    4.0226   -0.1401 H   0  0  0  0  0  0
    1.4909    2.2064    1.1643 H   0  0  0  0  0  0
    2.3881   -2.3668    1.0733 N   0  3  0  0  0  0
    1.8278   -2.8733    1.7688 H   0  0  0  0  0  0
    2.3332   -2.8523    0.1702 H   0  0  0  0  0  0
  1  2  1  0  0  0
  1 25  1  0  0  0
  1 26  1  0  0  0
  1 27  1  0  0  0
  2  3  2  0  0  0
  2 23  1  0  0  0
  3  4  1  0  0  0
  3 28  1  0  0  0
  4  5  2  0  0  0
  4 29  1  0  0  0
  5  6  1  0  0  0
  5 30  1  0  0  0
  6  7  1  0  0  0
  6 23  2  0  0  0
  7  8  2  0  0  0
  7 22  1  0  0  0
  8  9  1  0  0  0
  9 10  1  0  0  0
 10 11  1  0  0  0
 10 22  2  0  0  0
 11 15  1  0  0  0
 11 31  1  0  0  0
 11 44  1  0  0  0
 12 13  1  0  0  0
 12 32  1  0  0  0
 12 33  1  0  0  0
 12 44  1  0  0  0
 13 14  1  0  0  0
 13 34  1  0  0  0
 13 35  1  0  0  0
 14 15  1  0  0  0
 14 36  1  0  0  0
 14 37  1  0  0  0
 15 16  1  0  0  0
 15 38  1  0  0  0
 16 17  2  0  0  0
 16 21  1  0  0  0
 17 18  1  0  0  0
 17 39  1  0  0  0
 18 19  2  0  0  0
 18 40  1  0  0  0
 19 20  1  0  0  0
 19 41  1  0  0  0
 20 21  2  0  0  0
 20 42  1  0  0  0
 21 43  1  0  0  0
 23 24  1  0  0  0
 44 45  1  0  0  0
 44 46  1  0  0  0
M  CHG  1  44   1
M  END
> <energy>
106.139

> <i_ionizer_Ion_state_n>
1

> <i_ionizer_Tot_Q>
1

> <s_ionizer_Ion_centers>
44

> <s_ionizer_Ion_types>
N5

> <s_ionizer_Ion_ctrs_in>
12

> <r_ionizer_Ionization_penalty>
0.000148807

> <r_ionizer_Ionization_penalty_charging>
0.000148807

> <r_ionizer_Ionization_penalty_neutral>
0

$$$$
ZINC001211869157
                    3D
 Schrodinger Suite 2019-4.
 49 52  0  0  1  0            999 V2000
    5.4740   -1.3196    0.6402 C   0  0  0  0  0  0
    4.4721   -0.2485    0.3405 C   0  0  0  0  0  0
    3.2583   -0.5565   -0.2854 C   0  0  0  0  0  0
    2.3211    0.4494   -0.5543 C   0  0  0  0  0  0
    1.0529    0.1139   -1.1723 C   0  0  0  0  0  0
    0.5173    0.8032   -2.1899 N   0  0  0  0  0  0
   -0.7105    0.1798   -2.3928 O   0  0  0  0  0  0
   -0.8067   -0.8119   -1.4575 C   0  0  0  0  0  0
   -2.1354   -1.5163   -1.3771 C   0  0  2  0  0  0
   -1.5222   -3.6013   -0.2240 C   0  0  0  0  0  0
   -2.3683   -3.2263    0.9906 C   0  0  0  0  0  0
   -2.4469   -1.7122    1.1570 C   0  0  0  0  0  0
   -2.9655   -1.0575   -0.1384 C   0  0  1  0  0  0
   -3.1319    0.4569   -0.0590 C   0  0  0  0  0  0
   -2.3091    1.2638    0.7424 C   0  0  0  0  0  0
   -2.4584    2.6521    0.7550 C   0  0  0  0  0  0
   -3.4286    3.2573   -0.0374 C   0  0  0  0  0  0
   -4.2521    2.4739   -0.8423 C   0  0  0  0  0  0
   -4.1065    1.0847   -0.8531 C   0  0  0  0  0  0
    0.2694   -0.9151   -0.7035 N   0  0  0  0  0  0
    2.5971    1.7731   -0.1802 C   0  0  0  0  0  0
    3.7919    2.0947    0.4756 C   0  0  0  0  0  0
    4.0546    3.4909    0.9528 C   0  0  0  0  0  0
    4.7116    1.0729    0.7318 C   0  0  0  0  0  0
    5.8500    1.3676    1.3790 F   0  0  0  0  0  0
    5.2895   -2.2153    0.0372 H   0  0  0  0  0  0
    6.4869   -0.9755    0.4070 H   0  0  0  0  0  0
    5.4209   -1.5970    1.6972 H   0  0  0  0  0  0
    3.0362   -1.5840   -0.5683 H   0  0  0  0  0  0
   -2.6950   -1.2161   -2.2752 H   0  0  0  0  0  0
   -1.5264   -4.6912   -0.3421 H   0  0  0  0  0  0
   -0.4767   -3.3218   -0.0590 H   0  0  0  0  0  0
   -1.9410   -3.6761    1.8953 H   0  0  0  0  0  0
   -3.3812   -3.6338    0.8783 H   0  0  0  0  0  0
   -1.4492   -1.3437    1.4220 H   0  0  0  0  0  0
   -3.1086   -1.4664    1.9970 H   0  0  0  0  0  0
   -3.9831   -1.4580   -0.2719 H   0  0  0  0  0  0
   -1.5222    0.8340    1.3552 H   0  0  0  0  0  0
   -1.8071    3.2605    1.3774 H   0  0  0  0  0  0
   -3.5407    4.3378   -0.0317 H   0  0  0  0  0  0
   -5.0047    2.9458   -1.4696 H   0  0  0  0  0  0
   -4.7579    0.4961   -1.4947 H   0  0  0  0  0  0
    1.8598    2.5500   -0.3778 H   0  0  0  0  0  0
    3.9171    3.5460    2.0375 H   0  0  0  0  0  0
    3.3701    4.2076    0.4857 H   0  0  0  0  0  0
    5.0740    3.8015    0.7034 H   0  0  0  0  0  0
   -2.0342   -3.0099   -1.4803 N   0  3  0  0  0  0
   -2.9653   -3.3958   -1.6765 H   0  0  0  0  0  0
   -1.3956   -3.2500   -2.2476 H   0  0  0  0  0  0
  1  2  1  0  0  0
  1 26  1  0  0  0
  1 27  1  0  0  0
  1 28  1  0  0  0
  2  3  2  0  0  0
  2 24  1  0  0  0
  3  4  1  0  0  0
  3 29  1  0  0  0
  4  5  1  0  0  0
  4 21  2  0  0  0
  5  6  2  0  0  0
  5 20  1  0  0  0
  6  7  1  0  0  0
  7  8  1  0  0  0
  8  9  1  0  0  0
  8 20  2  0  0  0
  9 13  1  0  0  0
  9 30  1  0  0  0
  9 47  1  0  0  0
 10 11  1  0  0  0
 10 31  1  0  0  0
 10 32  1  0  0  0
 10 47  1  0  0  0
 11 12  1  0  0  0
 11 33  1  0  0  0
 11 34  1  0  0  0
 12 13  1  0  0  0
 12 35  1  0  0  0
 12 36  1  0  0  0
 13 14  1  0  0  0
 13 37  1  0  0  0
 14 15  2  0  0  0
 14 19  1  0  0  0
 15 16  1  0  0  0
 15 38  1  0  0  0
 16 17  2  0  0  0
 16 39  1  0  0  0
 17 18  1  0  0  0
 17 40  1  0  0  0
 18 19  2  0  0  0
 18 41  1  0  0  0
 19 42  1  0  0  0
 21 22  1  0  0  0
 21 43  1  0  0  0
 22 23  1  0  0  0
 22 24  2  0  0  0
 23 44  1  0  0  0
 23 45  1  0  0  0
 23 46  1  0  0  0
 24 25  1  0  0  0
 47 48  1  0  0  0
 47 49  1  0  0  0
M  CHG  1  47   1
M  END
> <energy>
96.1182

> <i_ionizer_Ion_state_n>
1

> <i_ionizer_Tot_Q>
1

> <s_ionizer_Ion_centers>
47

> <s_ionizer_Ion_types>
N5

> <s_ionizer_Ion_ctrs_in>
10

> <r_ionizer_Ionization_penalty>
0.000148807

> <r_ionizer_Ionization_penalty_charging>
0.000148807

> <r_ionizer_Ionization_penalty_neutral>
0

$$$$
ZINC001211869158
                    3D
 Schrodinger Suite 2019-4.
 49 52  0  0  1  0            999 V2000
    3.3997    4.8291   -0.8130 C   0  0  0  0  0  0
    3.5054    3.3735   -0.4846 C   0  0  0  0  0  0
    2.3831    2.5353   -0.4876 C   0  0  0  0  0  0
    2.5221    1.1765   -0.1738 C   0  0  0  0  0  0
    1.3989    0.2732   -0.2614 C   0  0  0  0  0  0
    0.9522   -0.1716   -1.4466 N   0  0  0  0  0  0
   -0.0486   -1.0679   -1.1037 O   0  0  0  0  0  0
   -0.0981   -1.0993    0.2639 C   0  0  0  0  0  0
   -1.0722   -2.0867    0.8698 C   0  0  1  0  0  0
   -2.0301   -4.3324    0.5461 C   0  0  0  0  0  0
   -3.4465   -3.7559    0.5711 C   0  0  0  0  0  0
   -3.5233   -2.5337    1.4890 C   0  0  0  0  0  0
   -2.4670   -1.4486    1.1506 C   0  0  2  0  0  0
   -2.9858   -0.4343    0.1307 C   0  0  0  0  0  0
   -3.0510    0.9298    0.4972 C   0  0  0  0  0  0
   -3.5672    1.8916   -0.3744 C   0  0  0  0  0  0
   -4.0400    1.5158   -1.6248 C   0  0  0  0  0  0
   -3.9284    0.1867   -2.0238 C   0  0  0  0  0  0
   -3.4028   -0.7782   -1.1575 C   0  0  0  0  0  0
    0.7704   -0.2884    0.8331 N   0  0  0  0  0  0
    3.7886    0.6555    0.1395 C   0  0  0  0  0  0
    4.9152    1.4827    0.1509 C   0  0  0  0  0  0
    6.2614    0.9188    0.4824 C   0  0  0  0  0  0
    4.7568    2.8352   -0.1491 C   0  0  0  0  0  0
    5.8273    3.6469   -0.1191 F   0  0  0  0  0  0
    3.5696    5.4169    0.0946 H   0  0  0  0  0  0
    2.4152    5.0954   -1.2098 H   0  0  0  0  0  0
    4.1508    5.1023   -1.5626 H   0  0  0  0  0  0
    1.4091    2.9284   -0.7704 H   0  0  0  0  0  0
   -0.6684   -2.3719    1.8570 H   0  0  0  0  0  0
   -1.9790   -5.1965   -0.1302 H   0  0  0  0  0  0
   -1.7303   -4.6975    1.5361 H   0  0  0  0  0  0
   -4.1680   -4.5080    0.8987 H   0  0  0  0  0  0
   -3.7593   -3.4966   -0.4476 H   0  0  0  0  0  0
   -3.3408   -2.8839    2.5149 H   0  0  0  0  0  0
   -4.5437   -2.1244    1.4878 H   0  0  0  0  0  0
   -2.3578   -0.8890    2.0917 H   0  0  0  0  0  0
   -2.6728    1.2400    1.4666 H   0  0  0  0  0  0
   -3.5967    2.9320   -0.0602 H   0  0  0  0  0  0
   -4.4727    2.2579   -2.2867 H   0  0  0  0  0  0
   -4.2479   -0.1007   -3.0214 H   0  0  0  0  0  0
   -3.3023   -1.7957   -1.5338 H   0  0  0  0  0  0
    3.8939   -0.3986    0.3686 H   0  0  0  0  0  0
    6.6644    1.3945    1.3831 H   0  0  0  0  0  0
    6.9506    1.0646   -0.3525 H   0  0  0  0  0  0
    6.2027   -0.1586    0.6693 H   0  0  0  0  0  0
   -1.0730   -3.3406    0.0387 N   0  3  0  0  0  0
   -1.3257   -3.0992   -0.9267 H   0  0  0  0  0  0
   -0.1315   -3.7499    0.0539 H   0  0  0  0  0  0
  1  2  1  0  0  0
  1 26  1  0  0  0
  1 27  1  0  0  0
  1 28  1  0  0  0
  2  3  2  0  0  0
  2 24  1  0  0  0
  3  4  1  0  0  0
  3 29  1  0  0  0
  4  5  1  0  0  0
  4 21  2  0  0  0
  5  6  2  0  0  0
  5 20  1  0  0  0
  6  7  1  0  0  0
  7  8  1  0  0  0
  8  9  1  0  0  0
  8 20  2  0  0  0
  9 13  1  0  0  0
  9 30  1  0  0  0
  9 47  1  0  0  0
 10 11  1  0  0  0
 10 31  1  0  0  0
 10 32  1  0  0  0
 10 47  1  0  0  0
 11 12  1  0  0  0
 11 33  1  0  0  0
 11 34  1  0  0  0
 12 13  1  0  0  0
 12 35  1  0  0  0
 12 36  1  0  0  0
 13 14  1  0  0  0
 13 37  1  0  0  0
 14 15  2  0  0  0
 14 19  1  0  0  0
 15 16  1  0  0  0
 15 38  1  0  0  0
 16 17  2  0  0  0
 16 39  1  0  0  0
 17 18  1  0  0  0
 17 40  1  0  0  0
 18 19  2  0  0  0
 18 41  1  0  0  0
 19 42  1  0  0  0
 21 22  1  0  0  0
 21 43  1  0  0  0
 22 23  1  0  0  0
 22 24  2  0  0  0
 23 44  1  0  0  0
 23 45  1  0  0  0
 23 46  1  0  0  0
 24 25  1  0  0  0
 47 48  1  0  0  0
 47 49  1  0  0  0
M  CHG  1  47   1
M  END
> <energy>
104.612

> <i_ionizer_Ion_state_n>
1

> <i_ionizer_Tot_Q>
1

> <s_ionizer_Ion_centers>
47

> <s_ionizer_Ion_types>
N5

> <s_ionizer_Ion_ctrs_in>
10

> <r_ionizer_Ionization_penalty>
0.000148807

> <r_ionizer_Ionization_penalty_charging>
0.000148807

> <r_ionizer_Ionization_penalty_neutral>
0

$$$$
ZINC001211869160
                    3D
 Schrodinger Suite 2019-4.
 49 52  0  0  1  0            999 V2000
    4.8987    0.3905   -2.9853 C   0  0  0  0  0  0
    4.4308    0.1624   -1.5811 C   0  0  0  0  0  0
    3.1425   -0.3326   -1.3291 C   0  0  0  0  0  0
    2.6889   -0.5246   -0.0155 C   0  0  0  0  0  0
    1.3362   -1.0114    0.2287 C   0  0  0  0  0  0
    0.9386   -1.5869    1.3752 N   0  0  0  0  0  0
   -0.4209   -1.8235    1.1718 O   0  0  0  0  0  0
   -0.7125   -1.3485   -0.0731 C   0  0  0  0  0  0
   -2.1495   -1.3620   -0.5013 C   0  0  2  0  0  0
   -4.0211   -2.7492   -1.1655 C   0  0  0  0  0  0
   -4.9884   -1.9446   -0.2994 C   0  0  0  0  0  0
   -4.4928   -0.5193   -0.0580 C   0  0  0  0  0  0
   -3.0419   -0.5144    0.4560 C   0  0  2  0  0  0
   -2.5716    0.9192    0.6793 C   0  0  0  0  0  0
   -2.5684    1.4548    1.9779 C   0  0  0  0  0  0
   -2.1214    2.7578    2.2118 C   0  0  0  0  0  0
   -1.6667    3.5412    1.1554 C   0  0  0  0  0  0
   -1.6730    3.0276   -0.1380 C   0  0  0  0  0  0
   -2.1319    1.7304   -0.3772 C   0  0  0  0  0  0
    0.3361   -0.8783   -0.7096 N   0  0  0  0  0  0
    3.5399   -0.2011    1.0551 C   0  0  0  0  0  0
    4.8236    0.3159    0.8220 C   0  0  0  0  0  0
    5.6979    0.7419    1.9617 C   0  0  0  0  0  0
    5.2434    0.5039   -0.4977 C   0  0  0  0  0  0
    6.4552    1.0338   -0.7306 F   0  0  0  0  0  0
    4.4232   -0.3150   -3.6756 H   0  0  0  0  0  0
    4.6562    1.4102   -3.2999 H   0  0  0  0  0  0
    5.9796    0.2393   -3.0686 H   0  0  0  0  0  0
    2.4846   -0.5663   -2.1646 H   0  0  0  0  0  0
   -2.1681   -0.9183   -1.5063 H   0  0  0  0  0  0
   -4.3662   -3.7871   -1.2325 H   0  0  0  0  0  0
   -4.0116   -2.3542   -2.1886 H   0  0  0  0  0  0
   -5.9710   -1.9127   -0.7838 H   0  0  0  0  0  0
   -5.1228   -2.4478    0.6644 H   0  0  0  0  0  0
   -5.1555   -0.0195    0.6591 H   0  0  0  0  0  0
   -4.5627    0.0478   -0.9957 H   0  0  0  0  0  0
   -3.0390   -1.0169    1.4359 H   0  0  0  0  0  0
   -2.9093    0.8620    2.8248 H   0  0  0  0  0  0
   -2.1154    3.1585    3.2216 H   0  0  0  0  0  0
   -1.3020    4.5492    1.3368 H   0  0  0  0  0  0
   -1.3185    3.6344   -0.9669 H   0  0  0  0  0  0
   -2.1255    1.3636   -1.4007 H   0  0  0  0  0  0
    3.1925   -0.3248    2.0798 H   0  0  0  0  0  0
    5.4984    1.7895    2.2114 H   0  0  0  0  0  0
    6.7570    0.6353    1.7080 H   0  0  0  0  0  0
    5.5160    0.1267    2.8484 H   0  0  0  0  0  0
   -2.6565   -2.7539   -0.6273 N   0  3  0  0  0  0
   -2.0442   -3.2819   -1.2601 H   0  0  0  0  0  0
   -2.6584   -3.1992    0.2978 H   0  0  0  0  0  0
  1  2  1  0  0  0
  1 26  1  0  0  0
  1 27  1  0  0  0
  1 28  1  0  0  0
  2  3  2  0  0  0
  2 24  1  0  0  0
  3  4  1  0  0  0
  3 29  1  0  0  0
  4  5  1  0  0  0
  4 21  2  0  0  0
  5  6  2  0  0  0
  5 20  1  0  0  0
  6  7  1  0  0  0
  7  8  1  0  0  0
  8  9  1  0  0  0
  8 20  2  0  0  0
  9 13  1  0  0  0
  9 30  1  0  0  0
  9 47  1  0  0  0
 10 11  1  0  0  0
 10 31  1  0  0  0
 10 32  1  0  0  0
 10 47  1  0  0  0
 11 12  1  0  0  0
 11 33  1  0  0  0
 11 34  1  0  0  0
 12 13  1  0  0  0
 12 35  1  0  0  0
 12 36  1  0  0  0
 13 14  1  0  0  0
 13 37  1  0  0  0
 14 15  2  0  0  0
 14 19  1  0  0  0
 15 16  1  0  0  0
 15 38  1  0  0  0
 16 17  2  0  0  0
 16 39  1  0  0  0
 17 18  1  0  0  0
 17 40  1  0  0  0
 18 19  2  0  0  0
 18 41  1  0  0  0
 19 42  1  0  0  0
 21 22  1  0  0  0
 21 43  1  0  0  0
 22 23  1  0  0  0
 22 24  2  0  0  0
 23 44  1  0  0  0
 23 45  1  0  0  0
 23 46  1  0  0  0
 24 25  1  0  0  0
 47 48  1  0  0  0
 47 49  1  0  0  0
M  CHG  1  47   1
M  END
> <energy>
93.6871

> <i_ionizer_Ion_state_n>
1

> <i_ionizer_Tot_Q>
1

> <s_ionizer_Ion_centers>
47

> <s_ionizer_Ion_types>
N5

> <s_ionizer_Ion_ctrs_in>
10

> <r_ionizer_Ionization_penalty>
0.000148807

> <r_ionizer_Ionization_penalty_charging>
0.000148807

> <r_ionizer_Ionization_penalty_neutral>
0

$$$$
ZINC001211869162
                    3D
 Schrodinger Suite 2019-4.
 49 52  0  0  1  0            999 V2000
    5.5435    1.7419   -2.7919 C   0  0  0  0  0  0
    4.8164    1.2582   -1.5740 C   0  0  0  0  0  0
    3.5191    0.7278   -1.6797 C   0  0  0  0  0  0
    2.8306    0.3092   -0.5331 C   0  0  0  0  0  0
    1.4949   -0.2616   -0.5887 C   0  0  0  0  0  0
    0.9085   -0.8079   -1.6658 N   0  0  0  0  0  0
   -0.3336   -1.2429   -1.1766 O   0  0  0  0  0  0
   -0.3632   -0.9122    0.1460 C   0  0  0  0  0  0
   -1.5608   -1.2437    0.9819 C   0  0  1  0  0  0
   -2.4636   -2.8545    2.5779 C   0  0  0  0  0  0
   -3.8575   -2.7412    1.9622 C   0  0  0  0  0  0
   -4.0559   -1.4002    1.2649 C   0  0  0  0  0  0
   -2.9253   -1.1477    0.2445 C   0  0  1  0  0  0
   -3.2264    0.1379   -0.5152 C   0  0  0  0  0  0
   -2.7291    1.3972   -0.1476 C   0  0  0  0  0  0
   -3.0486    2.5255   -0.9066 C   0  0  0  0  0  0
   -3.8721    2.4172   -2.0273 C   0  0  0  0  0  0
   -4.4042    1.1795   -2.3775 C   0  0  0  0  0  0
   -4.0855    0.0522   -1.6277 C   0  0  0  0  0  0
    0.7264   -0.2993    0.5474 N   0  0  0  0  0  0
    3.4465    0.4515    0.7199 C   0  0  0  0  0  0
    4.7407    0.9576    0.8457 C   0  0  0  0  0  0
    5.3527    1.0748    2.2071 C   0  0  0  0  0  0
    5.4015    1.3789   -0.3063 C   0  0  0  0  0  0
    6.6336    1.9016   -0.1968 F   0  0  0  0  0  0
    5.3454    1.0857   -3.6432 H   0  0  0  0  0  0
    5.2278    2.7607   -3.0362 H   0  0  0  0  0  0
    6.6283    1.7322   -2.6404 H   0  0  0  0  0  0
    3.0472    0.6513   -2.6537 H   0  0  0  0  0  0
   -1.5608   -0.5076    1.8006 H   0  0  0  0  0  0
   -2.3262   -3.8683    2.9739 H   0  0  0  0  0  0
   -2.3746   -2.1751    3.4372 H   0  0  0  0  0  0
   -4.6252   -2.8685    2.7392 H   0  0  0  0  0  0
   -4.0093   -3.5446    1.2304 H   0  0  0  0  0  0
   -5.0400   -1.3961    0.7753 H   0  0  0  0  0  0
   -4.0707   -0.5964    2.0158 H   0  0  0  0  0  0
   -2.9478   -1.9649   -0.4942 H   0  0  0  0  0  0
   -2.0837    1.5280    0.7173 H   0  0  0  0  0  0
   -2.6456    3.4944   -0.6233 H   0  0  0  0  0  0
   -4.1139    3.2997   -2.6109 H   0  0  0  0  0  0
   -5.0614    1.0959   -3.2367 H   0  0  0  0  0  0
   -4.5131   -0.9046   -1.9217 H   0  0  0  0  0  0
    2.9137    0.1452    1.6185 H   0  0  0  0  0  0
    5.1265    0.1812    2.8003 H   0  0  0  0  0  0
    6.4385    1.1757    2.1569 H   0  0  0  0  0  0
    4.9370    1.9495    2.7119 H   0  0  0  0  0  0
   -1.3847   -2.5890    1.6113 N   0  3  0  0  0  0
   -1.4027   -3.3090    0.8795 H   0  0  0  0  0  0
   -0.4810   -2.6182    2.0980 H   0  0  0  0  0  0
  1  2  1  0  0  0
  1 26  1  0  0  0
  1 27  1  0  0  0
  1 28  1  0  0  0
  2  3  2  0  0  0
  2 24  1  0  0  0
  3  4  1  0  0  0
  3 29  1  0  0  0
  4  5  1  0  0  0
  4 21  2  0  0  0
  5  6  2  0  0  0
  5 20  1  0  0  0
  6  7  1  0  0  0
  7  8  1  0  0  0
  8  9  1  0  0  0
  8 20  2  0  0  0
  9 13  1  0  0  0
  9 30  1  0  0  0
  9 47  1  0  0  0
 10 11  1  0  0  0
 10 31  1  0  0  0
 10 32  1  0  0  0
 10 47  1  0  0  0
 11 12  1  0  0  0
 11 33  1  0  0  0
 11 34  1  0  0  0
 12 13  1  0  0  0
 12 35  1  0  0  0
 12 36  1  0  0  0
 13 14  1  0  0  0
 13 37  1  0  0  0
 14 15  2  0  0  0
 14 19  1  0  0  0
 15 16  1  0  0  0
 15 38  1  0  0  0
 16 17  2  0  0  0
 16 39  1  0  0  0
 17 18  1  0  0  0
 17 40  1  0  0  0
 18 19  2  0  0  0
 18 41  1  0  0  0
 19 42  1  0  0  0
 21 22  1  0  0  0
 21 43  1  0  0  0
 22 23  1  0  0  0
 22 24  2  0  0  0
 23 44  1  0  0  0
 23 45  1  0  0  0
 23 46  1  0  0  0
 24 25  1  0  0  0
 47 48  1  0  0  0
 47 49  1  0  0  0
M  CHG  1  47   1
M  END
> <energy>
96.7219

> <i_ionizer_Ion_state_n>
1

> <i_ionizer_Tot_Q>
1

> <s_ionizer_Ion_centers>
47

> <s_ionizer_Ion_types>
N5

> <s_ionizer_Ion_ctrs_in>
10

> <r_ionizer_Ionization_penalty>
0.000148807

> <r_ionizer_Ionization_penalty_charging>
0.000148807

> <r_ionizer_Ionization_penalty_neutral>
0

$$$$
ZINC001211869173
                    3D
 Schrodinger Suite 2019-4.
 46 49  0  0  1  0            999 V2000
    6.4540    2.2363   -0.3744 C   0  0  0  0  0  0
    5.2668    1.3979   -0.0074 C   0  0  0  0  0  0
    4.4938    1.7083    1.1174 C   0  0  0  0  0  0
    3.3354    0.9784    1.3938 C   0  0  0  0  0  0
    2.6020    1.3426    2.4549 F   0  0  0  0  0  0
    2.9174   -0.0521    0.5498 C   0  0  0  0  0  0
    1.6518   -0.7224    0.7558 C   0  0  0  0  0  0
    1.2208   -1.2169    1.9258 N   0  0  0  0  0  0
   -0.0576   -1.6949    1.6274 O   0  0  0  0  0  0
   -0.2625   -1.4447    0.3016 C   0  0  0  0  0  0
   -1.6258   -1.7615   -0.2537 C   0  0  1  0  0  0
   -2.7610   -3.0118   -2.0337 C   0  0  0  0  0  0
   -3.3648   -1.7354   -2.6076 C   0  0  0  0  0  0
   -3.6033   -0.7048   -1.5089 C   0  0  0  0  0  0
   -2.3015   -0.4362   -0.7336 C   0  0  1  0  0  0
   -2.5281    0.5383    0.4166 C   0  0  0  0  0  0
   -1.7629    1.7129    0.4844 C   0  0  0  0  0  0
   -1.8809    2.5748    1.5747 C   0  0  0  0  0  0
   -2.7736    2.2800    2.6024 C   0  0  0  0  0  0
   -3.5586    1.1315    2.5351 C   0  0  0  0  0  0
   -3.4384    0.2636    1.4487 C   0  0  0  0  0  0
    0.7749   -0.8870   -0.2885 N   0  0  0  0  0  0
    3.6941   -0.3724   -0.5706 C   0  0  0  0  0  0
    4.8559    0.3475   -0.8338 C   0  0  0  0  0  0
    5.5760    0.0350   -1.9220 F   0  0  0  0  0  0
    7.2837    1.6143   -0.7269 H   0  0  0  0  0  0
    6.1753    2.9442   -1.1637 H   0  0  0  0  0  0
    6.8172    2.8067    0.4873 H   0  0  0  0  0  0
    4.7606    2.5336    1.7725 H   0  0  0  0  0  0
   -2.2283   -2.2196    0.5426 H   0  0  0  0  0  0
   -2.5782   -3.7228   -2.8470 H   0  0  0  0  0  0
   -3.4697   -3.4944   -1.3506 H   0  0  0  0  0  0
   -2.6949   -1.3112   -3.3660 H   0  0  0  0  0  0
   -4.3104   -1.9653   -3.1093 H   0  0  0  0  0  0
   -4.3966   -1.0739   -0.8456 H   0  0  0  0  0  0
   -3.9694    0.2276   -1.9543 H   0  0  0  0  0  0
   -1.6182    0.0455   -1.4520 H   0  0  0  0  0  0
   -1.0456    1.9534   -0.2992 H   0  0  0  0  0  0
   -1.2655    3.4687    1.6252 H   0  0  0  0  0  0
   -2.8536    2.9462    3.4569 H   0  0  0  0  0  0
   -4.2581    0.9023    3.3349 H   0  0  0  0  0  0
   -4.0496   -0.6348    1.4284 H   0  0  0  0  0  0
    3.3910   -1.1624   -1.2528 H   0  0  0  0  0  0
   -1.4775   -2.7599   -1.3588 N   0  3  0  0  0  0
   -0.8045   -2.4000   -2.0456 H   0  0  0  0  0  0
   -1.1279   -3.6422   -0.9669 H   0  0  0  0  0  0
  1  2  1  0  0  0
  1 26  1  0  0  0
  1 27  1  0  0  0
  1 28  1  0  0  0
  2  3  2  0  0  0
  2 24  1  0  0  0
  3  4  1  0  0  0
  3 29  1  0  0  0
  4  5  1  0  0  0
  4  6  2  0  0  0
  6  7  1  0  0  0
  6 23  1  0  0  0
  7  8  2  0  0  0
  7 22  1  0  0  0
  8  9  1  0  0  0
  9 10  1  0  0  0
 10 11  1  0  0  0
 10 22  2  0  0  0
 11 15  1  0  0  0
 11 30  1  0  0  0
 11 44  1  0  0  0
 12 13  1  0  0  0
 12 31  1  0  0  0
 12 32  1  0  0  0
 12 44  1  0  0  0
 13 14  1  0  0  0
 13 33  1  0  0  0
 13 34  1  0  0  0
 14 15  1  0  0  0
 14 35  1  0  0  0
 14 36  1  0  0  0
 15 16  1  0  0  0
 15 37  1  0  0  0
 16 17  2  0  0  0
 16 21  1  0  0  0
 17 18  1  0  0  0
 17 38  1  0  0  0
 18 19  2  0  0  0
 18 39  1  0  0  0
 19 20  1  0  0  0
 19 40  1  0  0  0
 20 21  2  0  0  0
 20 41  1  0  0  0
 21 42  1  0  0  0
 23 24  2  0  0  0
 23 43  1  0  0  0
 24 25  1  0  0  0
 44 45  1  0  0  0
 44 46  1  0  0  0
M  CHG  1  44   1
M  END
> <energy>
79.2908

> <i_ionizer_Ion_state_n>
1

> <i_ionizer_Tot_Q>
1

> <s_ionizer_Ion_centers>
44

> <s_ionizer_Ion_types>
N5

> <s_ionizer_Ion_ctrs_in>
12

> <r_ionizer_Ionization_penalty>
0.000148807

> <r_ionizer_Ionization_penalty_charging>
0.000148807

> <r_ionizer_Ionization_penalty_neutral>
0

$$$$
ZINC001211869175
                    3D
 Schrodinger Suite 2019-4.
 46 49  0  0  1  0            999 V2000
    6.7445    0.9901   -0.8038 C   0  0  0  0  0  0
    5.3957    0.3520   -0.6758 C   0  0  0  0  0  0
    5.2638   -1.0194   -0.4315 C   0  0  0  0  0  0
    3.9947   -1.5900   -0.2928 C   0  0  0  0  0  0
    3.9258   -2.9039   -0.0335 F   0  0  0  0  0  0
    2.8362   -0.8112   -0.3897 C   0  0  0  0  0  0
    1.5093   -1.3881   -0.2651 C   0  0  0  0  0  0
    1.1633   -2.5991   -0.7288 N   0  0  0  0  0  0
   -0.2005   -2.6825   -0.4564 O   0  0  0  0  0  0
   -0.5512   -1.5092    0.1513 C   0  0  0  0  0  0
   -2.0008   -1.3824    0.5515 C   0  0  2  0  0  0
   -3.6846   -2.2529    2.1010 C   0  0  0  0  0  0
   -4.0175   -0.8544    2.6048 C   0  0  0  0  0  0
   -3.7995    0.1737    1.5033 C   0  0  0  0  0  0
   -2.3659    0.0835    0.9390 C   0  0  2  0  0  0
   -2.2034    1.0728   -0.2116 C   0  0  0  0  0  0
   -1.2437    2.0919   -0.1166 C   0  0  0  0  0  0
   -1.0583    2.9995   -1.1618 C   0  0  0  0  0  0
   -1.8375    2.9057   -2.3124 C   0  0  0  0  0  0
   -2.7983    1.9044   -2.4192 C   0  0  0  0  0  0
   -2.9796    0.9911   -1.3784 C   0  0  0  0  0  0
    0.4640   -0.6847    0.2942 N   0  0  0  0  0  0
    2.9713    0.5647   -0.6155 C   0  0  0  0  0  0
    4.2375    1.1299   -0.7552 C   0  0  0  0  0  0
    4.3369    2.4477   -0.9771 F   0  0  0  0  0  0
    6.7678    1.6723   -1.6600 H   0  0  0  0  0  0
    6.9839    1.5488    0.1065 H   0  0  0  0  0  0
    7.5260    0.2400   -0.9639 H   0  0  0  0  0  0
    6.1383   -1.6586   -0.3411 H   0  0  0  0  0  0
   -2.6010   -1.6874   -0.3156 H   0  0  0  0  0  0
   -4.3618   -2.5375    1.2864 H   0  0  0  0  0  0
   -3.8367   -2.9724    2.9119 H   0  0  0  0  0  0
   -5.0593   -0.8172    2.9440 H   0  0  0  0  0  0
   -3.3909   -0.6078    3.4721 H   0  0  0  0  0  0
   -4.5421    0.0013    0.7130 H   0  0  0  0  0  0
   -3.9881    1.1795    1.8966 H   0  0  0  0  0  0
   -1.6918    0.3905    1.7525 H   0  0  0  0  0  0
   -0.6182    2.1754    0.7706 H   0  0  0  0  0  0
   -0.3048    3.7767   -1.0756 H   0  0  0  0  0  0
   -1.6933    3.6132   -3.1241 H   0  0  0  0  0  0
   -3.4064    1.8325   -3.3171 H   0  0  0  0  0  0
   -3.7388    0.2208   -1.4921 H   0  0  0  0  0  0
    2.0974    1.2071   -0.6923 H   0  0  0  0  0  0
   -2.2817   -2.3409    1.6677 N   0  3  0  0  0  0
   -2.0897   -3.2967    1.3453 H   0  0  0  0  0  0
   -1.6708   -2.1186    2.4624 H   0  0  0  0  0  0
  1  2  1  0  0  0
  1 26  1  0  0  0
  1 27  1  0  0  0
  1 28  1  0  0  0
  2  3  2  0  0  0
  2 24  1  0  0  0
  3  4  1  0  0  0
  3 29  1  0  0  0
  4  5  1  0  0  0
  4  6  2  0  0  0
  6  7  1  0  0  0
  6 23  1  0  0  0
  7  8  2  0  0  0
  7 22  1  0  0  0
  8  9  1  0  0  0
  9 10  1  0  0  0
 10 11  1  0  0  0
 10 22  2  0  0  0
 11 15  1  0  0  0
 11 30  1  0  0  0
 11 44  1  0  0  0
 12 13  1  0  0  0
 12 31  1  0  0  0
 12 32  1  0  0  0
 12 44  1  0  0  0
 13 14  1  0  0  0
 13 33  1  0  0  0
 13 34  1  0  0  0
 14 15  1  0  0  0
 14 35  1  0  0  0
 14 36  1  0  0  0
 15 16  1  0  0  0
 15 37  1  0  0  0
 16 17  2  0  0  0
 16 21  1  0  0  0
 17 18  1  0  0  0
 17 38  1  0  0  0
 18 19  2  0  0  0
 18 39  1  0  0  0
 19 20  1  0  0  0
 19 40  1  0  0  0
 20 21  2  0  0  0
 20 41  1  0  0  0
 21 42  1  0  0  0
 23 24  2  0  0  0
 23 43  1  0  0  0
 24 25  1  0  0  0
 44 45  1  0  0  0
 44 46  1  0  0  0
M  CHG  1  44   1
M  END
> <energy>
78.333

> <i_ionizer_Ion_state_n>
1

> <i_ionizer_Tot_Q>
1

> <s_ionizer_Ion_centers>
44

> <s_ionizer_Ion_types>
N5

> <s_ionizer_Ion_ctrs_in>
12

> <r_ionizer_Ionization_penalty>
0.000148807

> <r_ionizer_Ionization_penalty_charging>
0.000148807

> <r_ionizer_Ionization_penalty_neutral>
0

$$$$
ZINC001211869176
                    3D
 Schrodinger Suite 2019-4.
 46 49  0  0  1  0            999 V2000
    6.0743    2.7404    0.9979 C   0  0  0  0  0  0
    4.9549    1.8977    0.4698 C   0  0  0  0  0  0
    4.8263    0.5555    0.8442 C   0  0  0  0  0  0
    3.7624   -0.2048    0.3605 C   0  0  0  0  0  0
    3.6655   -1.4844    0.7558 F   0  0  0  0  0  0
    2.8269    0.3448   -0.5199 C   0  0  0  0  0  0
    1.6992   -0.4403   -0.9682 C   0  0  0  0  0  0
    1.3582   -0.6044   -2.2550 N   0  0  0  0  0  0
    0.1914   -1.3751   -2.1882 O   0  0  0  0  0  0
   -0.0635   -1.5656   -0.8615 C   0  0  0  0  0  0
   -1.3429   -2.2696   -0.4900 C   0  0  2  0  0  0
   -2.5059   -3.3356    1.4003 C   0  0  0  0  0  0
   -3.6819   -2.3783    1.2676 C   0  0  0  0  0  0
   -3.8746   -1.9506   -0.1835 C   0  0  0  0  0  0
   -2.5900   -1.3827   -0.8154 C   0  0  1  0  0  0
   -2.4758    0.1210   -0.5618 C   0  0  0  0  0  0
   -1.9970    0.6684    0.6366 C   0  0  0  0  0  0
   -1.8650    2.0504    0.7849 C   0  0  0  0  0  0
   -2.2258    2.9074   -0.2519 C   0  0  0  0  0  0
   -2.7300    2.3847   -1.4367 C   0  0  0  0  0  0
   -2.8596    1.0047   -1.5869 C   0  0  0  0  0  0
    0.8405   -1.0231   -0.0739 N   0  0  0  0  0  0
    2.9689    1.6779   -0.9230 C   0  0  0  0  0  0
    4.0263    2.4358   -0.4246 C   0  0  0  0  0  0
    4.1436    3.7154   -0.8075 F   0  0  0  0  0  0
    5.6893    3.6981    1.3616 H   0  0  0  0  0  0
    6.8132    2.9219    0.2124 H   0  0  0  0  0  0
    6.5752    2.2476    1.8378 H   0  0  0  0  0  0
    5.5366    0.0909    1.5240 H   0  0  0  0  0  0
   -1.4124   -3.1663   -1.1221 H   0  0  0  0  0  0
   -2.7183   -4.2745    0.8702 H   0  0  0  0  0  0
   -2.3693   -3.6021    2.4545 H   0  0  0  0  0  0
   -4.5950   -2.8717    1.6216 H   0  0  0  0  0  0
   -3.5313   -1.5064    1.9128 H   0  0  0  0  0  0
   -4.1792   -2.8342   -0.7596 H   0  0  0  0  0  0
   -4.6999   -1.2328   -0.2535 H   0  0  0  0  0  0
   -2.7271   -1.4834   -1.9048 H   0  0  0  0  0  0
   -1.7014    0.0350    1.4673 H   0  0  0  0  0  0
   -1.4695    2.4573    1.7116 H   0  0  0  0  0  0
   -2.1146    3.9815   -0.1332 H   0  0  0  0  0  0
   -3.0133    3.0483   -2.2474 H   0  0  0  0  0  0
   -3.2577    0.6258   -2.5264 H   0  0  0  0  0  0
    2.2535    2.1430   -1.5956 H   0  0  0  0  0  0
   -1.2364   -2.7634    0.9200 N   0  3  0  0  0  0
   -0.5090   -3.4866    0.9643 H   0  0  0  0  0  0
   -0.9758   -1.9780    1.5278 H   0  0  0  0  0  0
  1  2  1  0  0  0
  1 26  1  0  0  0
  1 27  1  0  0  0
  1 28  1  0  0  0
  2  3  2  0  0  0
  2 24  1  0  0  0
  3  4  1  0  0  0
  3 29  1  0  0  0
  4  5  1  0  0  0
  4  6  2  0  0  0
  6  7  1  0  0  0
  6 23  1  0  0  0
  7  8  2  0  0  0
  7 22  1  0  0  0
  8  9  1  0  0  0
  9 10  1  0  0  0
 10 11  1  0  0  0
 10 22  2  0  0  0
 11 15  1  0  0  0
 11 30  1  0  0  0
 11 44  1  0  0  0
 12 13  1  0  0  0
 12 31  1  0  0  0
 12 32  1  0  0  0
 12 44  1  0  0  0
 13 14  1  0  0  0
 13 33  1  0  0  0
 13 34  1  0  0  0
 14 15  1  0  0  0
 14 35  1  0  0  0
 14 36  1  0  0  0
 15 16  1  0  0  0
 15 37  1  0  0  0
 16 17  2  0  0  0
 16 21  1  0  0  0
 17 18  1  0  0  0
 17 38  1  0  0  0
 18 19  2  0  0  0
 18 39  1  0  0  0
 19 20  1  0  0  0
 19 40  1  0  0  0
 20 21  2  0  0  0
 20 41  1  0  0  0
 21 42  1  0  0  0
 23 24  2  0  0  0
 23 43  1  0  0  0
 24 25  1  0  0  0
 44 45  1  0  0  0
 44 46  1  0  0  0
M  CHG  1  44   1
M  END
> <energy>
84.5493

> <i_ionizer_Ion_state_n>
1

> <i_ionizer_Tot_Q>
1

> <s_ionizer_Ion_centers>
44

> <s_ionizer_Ion_types>
N5

> <s_ionizer_Ion_ctrs_in>
12

> <r_ionizer_Ionization_penalty>
0.000148807

> <r_ionizer_Ionization_penalty_charging>
0.000148807

> <r_ionizer_Ionization_penalty_neutral>
0

$$$$
ZINC001211869179
                    3D
 Schrodinger Suite 2019-4.
 46 49  0  0  1  0            999 V2000
    6.8936    0.5918   -0.6516 C   0  0  0  0  0  0
    5.5041    0.0964   -0.3869 C   0  0  0  0  0  0
    4.3938    0.9334   -0.5377 C   0  0  0  0  0  0
    3.1113    0.4517   -0.2602 C   0  0  0  0  0  0
    2.0832    1.3029   -0.3945 F   0  0  0  0  0  0
    2.9063   -0.8594    0.1840 C   0  0  0  0  0  0
    1.5791   -1.3196    0.5509 C   0  0  0  0  0  0
    1.3456   -2.1437    1.5873 N   0  0  0  0  0  0
   -0.0400   -2.2707    1.6020 O   0  0  0  0  0  0
   -0.5138   -1.5316    0.5549 C   0  0  0  0  0  0
   -2.0034   -1.5675    0.3485 C   0  0  1  0  0  0
   -3.8252   -2.0005   -1.2051 C   0  0  0  0  0  0
   -4.6014   -0.7891   -0.6912 C   0  0  0  0  0  0
   -4.2409   -0.4596    0.7596 C   0  0  0  0  0  0
   -2.7154   -0.3239    0.9641 C   0  0  2  0  0  0
   -2.2484    1.0678    0.5435 C   0  0  0  0  0  0
   -1.7997    1.3714   -0.7487 C   0  0  0  0  0  0
   -1.3706    2.6591   -1.0780 C   0  0  0  0  0  0
   -1.3955    3.6718   -0.1246 C   0  0  0  0  0  0
   -1.8589    3.3979    1.1584 C   0  0  0  0  0  0
   -2.2868    2.1099    1.4889 C   0  0  0  0  0  0
    0.4460   -0.9581   -0.1386 N   0  0  0  0  0  0
    4.0187   -1.7047    0.3113 C   0  0  0  0  0  0
    5.2946   -1.2257    0.0172 C   0  0  0  0  0  0
    6.3406   -2.0559    0.1419 F   0  0  0  0  0  0
    7.5461    0.3545    0.1966 H   0  0  0  0  0  0
    6.9126    1.6793   -0.7819 H   0  0  0  0  0  0
    7.3000    0.1299   -1.5563 H   0  0  0  0  0  0
    4.5048    1.9670   -0.8542 H   0  0  0  0  0  0
   -2.3604   -2.4415    0.9141 H   0  0  0  0  0  0
   -4.0550   -2.1541   -2.2646 H   0  0  0  0  0  0
   -4.1468   -2.9060   -0.6755 H   0  0  0  0  0  0
   -4.4074    0.0778   -1.3335 H   0  0  0  0  0  0
   -5.6775   -0.9883   -0.7614 H   0  0  0  0  0  0
   -4.7712    0.4458    1.0793 H   0  0  0  0  0  0
   -4.6089   -1.2746    1.3966 H   0  0  0  0  0  0
   -2.5383   -0.3826    2.0487 H   0  0  0  0  0  0
   -1.7607    0.6083   -1.5220 H   0  0  0  0  0  0
   -1.0095    2.8634   -2.0824 H   0  0  0  0  0  0
   -1.0493    4.6693   -0.3815 H   0  0  0  0  0  0
   -1.8851    4.1865    1.9048 H   0  0  0  0  0  0
   -2.6481    1.9230    2.4979 H   0  0  0  0  0  0
    3.9068   -2.7349    0.6412 H   0  0  0  0  0  0
   -2.3724   -1.8228   -1.0710 N   0  3  0  0  0  0
   -2.0759   -1.0250   -1.6453 H   0  0  0  0  0  0
   -1.8973   -2.6733   -1.3953 H   0  0  0  0  0  0
  1  2  1  0  0  0
  1 26  1  0  0  0
  1 27  1  0  0  0
  1 28  1  0  0  0
  2  3  2  0  0  0
  2 24  1  0  0  0
  3  4  1  0  0  0
  3 29  1  0  0  0
  4  5  1  0  0  0
  4  6  2  0  0  0
  6  7  1  0  0  0
  6 23  1  0  0  0
  7  8  2  0  0  0
  7 22  1  0  0  0
  8  9  1  0  0  0
  9 10  1  0  0  0
 10 11  1  0  0  0
 10 22  2  0  0  0
 11 15  1  0  0  0
 11 30  1  0  0  0
 11 44  1  0  0  0
 12 13  1  0  0  0
 12 31  1  0  0  0
 12 32  1  0  0  0
 12 44  1  0  0  0
 13 14  1  0  0  0
 13 33  1  0  0  0
 13 34  1  0  0  0
 14 15  1  0  0  0
 14 35  1  0  0  0
 14 36  1  0  0  0
 15 16  1  0  0  0
 15 37  1  0  0  0
 16 17  2  0  0  0
 16 21  1  0  0  0
 17 18  1  0  0  0
 17 38  1  0  0  0
 18 19  2  0  0  0
 18 39  1  0  0  0
 19 20  1  0  0  0
 19 40  1  0  0  0
 20 21  2  0  0  0
 20 41  1  0  0  0
 21 42  1  0  0  0
 23 24  2  0  0  0
 23 43  1  0  0  0
 24 25  1  0  0  0
 44 45  1  0  0  0
 44 46  1  0  0  0
M  CHG  1  44   1
M  END
> <energy>
83.4585

> <i_ionizer_Ion_state_n>
1

> <i_ionizer_Tot_Q>
1

> <s_ionizer_Ion_centers>
44

> <s_ionizer_Ion_types>
N5

> <s_ionizer_Ion_ctrs_in>
12

> <r_ionizer_Ionization_penalty>
0.000148807

> <r_ionizer_Ionization_penalty_charging>
0.000148807

> <r_ionizer_Ionization_penalty_neutral>
0

$$$$
ZINC001211869206
                    3D
 Schrodinger Suite 2019-4.
 40 42  0  0  1  0            999 V2000
    1.3576    2.5082    2.2196 O   0  0  0  0  0  0
    1.4238    2.0792    1.0730 C   0  0  0  0  0  0
    0.1495    1.9210    0.3527 C   0  0  0  0  0  0
   -0.7646    0.9959    0.8796 C   0  0  0  0  0  0
   -1.9664    0.7315    0.2122 C   0  0  0  0  0  0
   -2.8863   -0.1827    0.7835 N   0  0  0  0  0  0
   -3.4502   -1.3001    0.1058 C   0  0  0  0  0  0
   -2.6922   -2.2842   -0.5431 C   0  0  0  0  0  0
   -0.9603   -2.2809   -0.5393 Cl  0  0  0  0  0  0
   -3.3030   -3.3702   -1.1765 C   0  0  0  0  0  0
   -4.6780   -3.4527   -1.1531 C   0  0  0  0  0  0
   -5.4590   -2.5488   -0.5388 N   0  0  0  0  0  0
   -4.8302   -1.5138    0.0667 C   0  0  0  0  0  0
   -5.9326   -0.4185    0.8181 Cl  0  0  0  0  0  0
   -2.2680    1.4516   -0.9497 C   0  0  0  0  0  0
   -1.3811    2.4205   -1.4373 C   0  0  0  0  0  0
   -0.1724    2.6537   -0.7868 C   0  0  0  0  0  0
    0.6786    3.5525   -1.3015 F   0  0  0  0  0  0
    2.6077    1.6120    0.4911 N   0  0  0  0  0  0
    2.7274    0.9668   -0.8147 C   0  0  0  0  0  0
    2.7771   -0.5531   -0.6570 C   0  0  0  0  0  0
    3.8197   -1.0013    0.3735 C   0  0  0  0  0  0
    3.7437   -0.1905    1.6726 C   0  0  0  0  0  0
    3.7257    1.3149    1.3853 C   0  0  0  0  0  0
   -0.5018    0.4500    1.7831 H   0  0  0  0  0  0
   -3.6290    0.3523    1.2427 H   0  0  0  0  0  0
   -2.7171   -4.1368   -1.6701 H   0  0  0  0  0  0
   -5.1990   -4.2746   -1.6289 H   0  0  0  0  0  0
   -3.1991    1.2570   -1.4798 H   0  0  0  0  0  0
   -1.6209    2.9697   -2.3427 H   0  0  0  0  0  0
    3.6575    1.3240   -1.2743 H   0  0  0  0  0  0
    1.9189    1.2595   -1.4857 H   0  0  0  0  0  0
    2.9999   -1.0256   -1.6202 H   0  0  0  0  0  0
    1.7894   -0.9056   -0.3437 H   0  0  0  0  0  0
    3.6652   -2.0638    0.5938 H   0  0  0  0  0  0
    4.8289   -0.9109   -0.0536 H   0  0  0  0  0  0
    2.8326   -0.4711    2.2177 H   0  0  0  0  0  0
    4.5967   -0.4351    2.3152 H   0  0  0  0  0  0
    4.6575    1.6211    0.8892 H   0  0  0  0  0  0
    3.6540    1.8791    2.3214 H   0  0  0  0  0  0
  1  2  2  0  0  0
  2  3  1  0  0  0
  2 19  1  0  0  0
  3  4  2  0  0  0
  3 17  1  0  0  0
  4  5  1  0  0  0
  4 25  1  0  0  0
  5  6  1  0  0  0
  5 15  2  0  0  0
  6  7  1  0  0  0
  6 26  1  0  0  0
  7  8  2  0  0  0
  7 13  1  0  0  0
  8  9  1  0  0  0
  8 10  1  0  0  0
 10 11  2  0  0  0
 10 27  1  0  0  0
 11 12  1  0  0  0
 11 28  1  0  0  0
 12 13  2  0  0  0
 13 14  1  0  0  0
 15 16  1  0  0  0
 15 29  1  0  0  0
 16 17  2  0  0  0
 16 30  1  0  0  0
 17 18  1  0  0  0
 19 20  1  0  0  0
 19 24  1  0  0  0
 20 21  1  0  0  0
 20 31  1  0  0  0
 20 32  1  0  0  0
 21 22  1  0  0  0
 21 33  1  0  0  0
 21 34  1  0  0  0
 22 23  1  0  0  0
 22 35  1  0  0  0
 22 36  1  0  0  0
 23 24  1  0  0  0
 23 37  1  0  0  0
 23 38  1  0  0  0
 24 39  1  0  0  0
 24 40  1  0  0  0
M  END
> <energy>
55.9956

> <i_ionizer_Ion_state_n>
0

> <i_ionizer_Tot_Q>
0

> <s_ionizer_Ion_centers>


> <s_ionizer_Ion_types>


> <s_ionizer_Ion_ctrs_in>


> <r_ionizer_Ionization_penalty>
0.00741239

> <r_ionizer_Ionization_penalty_charging>
0

> <r_ionizer_Ionization_penalty_neutral>
0.00741239

$$$$
ZINC001211869298
                    3D
 Schrodinger Suite 2019-4.
 53 56  0  0  1  0            999 V2000
    4.2964    2.4500    0.8381 C   0  0  0  0  0  0
    3.7225    1.0513    1.0337 C   0  0  0  0  0  0
    4.0413    0.5242    2.4260 C   0  0  0  0  0  0
    4.3566    0.1791    0.0855 O   0  0  0  0  0  0
    3.5520   -0.2778   -0.9193 C   0  0  0  0  0  0
    4.0843   -0.2465   -2.2058 C   0  0  0  0  0  0
    3.3362   -0.7132   -3.2873 C   0  0  0  0  0  0
    2.0526   -1.2230   -3.0799 C   0  0  0  0  0  0
    1.5145   -1.2779   -1.7867 C   0  0  0  0  0  0
    0.1484   -1.7276   -1.5509 C   0  0  0  0  0  0
   -0.6261   -2.3306   -2.4675 N   0  0  0  0  0  0
   -1.8805   -2.3758   -1.8606 O   0  0  0  0  0  0
   -1.7369   -1.8000   -0.6322 C   0  0  0  0  0  0
   -2.9912   -1.5996    0.1697 C   0  0  2  0  0  0
   -2.3095   -2.5702    2.3202 C   0  0  0  0  0  0
   -2.4716   -1.2293    3.0279 C   0  0  0  0  0  0
   -2.1916   -0.0709    2.0773 C   0  0  0  0  0  0
   -3.0671   -0.1782    0.8105 C   0  0  1  0  0  0
   -2.8572    0.9505   -0.1980 C   0  0  0  0  0  0
   -1.6272    1.6098   -0.3541 C   0  0  0  0  0  0
   -1.4704    2.6317   -1.2920 C   0  0  0  0  0  0
   -2.5394    3.0109   -2.0962 C   0  0  0  0  0  0
   -3.7611    2.3531   -1.9745 C   0  0  0  0  0  0
   -3.9193    1.3302   -1.0354 C   0  0  0  0  0  0
   -0.4965   -1.4647   -0.3611 N   0  0  0  0  0  0
    2.2864   -0.8223   -0.7066 C   0  0  0  0  0  0
    3.9863    2.8528   -0.1332 H   0  0  0  0  0  0
    5.3917    2.4279    0.8349 H   0  0  0  0  0  0
    3.9594    3.1356    1.6220 H   0  0  0  0  0  0
    2.6345    1.1098    0.9139 H   0  0  0  0  0  0
    3.6539   -0.4934    2.5472 H   0  0  0  0  0  0
    3.6061    1.1612    3.2022 H   0  0  0  0  0  0
    5.1237    0.4700    2.5843 H   0  0  0  0  0  0
    5.0840    0.1461   -2.3679 H   0  0  0  0  0  0
    3.7502   -0.6710   -4.2932 H   0  0  0  0  0  0
    1.4737   -1.5655   -3.9361 H   0  0  0  0  0  0
   -3.8306   -1.6753   -0.5350 H   0  0  0  0  0  0
   -2.5455   -3.3782    3.0213 H   0  0  0  0  0  0
   -1.2672   -2.7172    2.0165 H   0  0  0  0  0  0
   -1.7911   -1.1767    3.8858 H   0  0  0  0  0  0
   -3.4908   -1.1421    3.4251 H   0  0  0  0  0  0
   -1.1241   -0.0805    1.8296 H   0  0  0  0  0  0
   -2.3867    0.8800    2.5871 H   0  0  0  0  0  0
   -4.0986   -0.0551    1.1761 H   0  0  0  0  0  0
   -0.7593    1.3291    0.2364 H   0  0  0  0  0  0
   -0.5082    3.1279   -1.3969 H   0  0  0  0  0  0
   -2.4210    3.8119   -2.8194 H   0  0  0  0  0  0
   -4.5946    2.6363   -2.6122 H   0  0  0  0  0  0
   -4.8831    0.8305   -0.9629 H   0  0  0  0  0  0
    1.8889   -0.8986    0.3004 H   0  0  0  0  0  0
   -3.2291   -2.6886    1.1698 N   0  3  0  0  0  0
   -4.1968   -2.6273    1.5074 H   0  0  0  0  0  0
   -3.0818   -3.5977    0.7160 H   0  0  0  0  0  0
  1  2  1  0  0  0
  1 27  1  0  0  0
  1 28  1  0  0  0
  1 29  1  0  0  0
  2  3  1  0  0  0
  2  4  1  0  0  0
  2 30  1  0  0  0
  3 31  1  0  0  0
  3 32  1  0  0  0
  3 33  1  0  0  0
  4  5  1  0  0  0
  5  6  2  0  0  0
  5 26  1  0  0  0
  6  7  1  0  0  0
  6 34  1  0  0  0
  7  8  2  0  0  0
  7 35  1  0  0  0
  8  9  1  0  0  0
  8 36  1  0  0  0
  9 10  1  0  0  0
  9 26  2  0  0  0
 10 11  2  0  0  0
 10 25  1  0  0  0
 11 12  1  0  0  0
 12 13  1  0  0  0
 13 14  1  0  0  0
 13 25  2  0  0  0
 14 18  1  0  0  0
 14 37  1  0  0  0
 14 51  1  0  0  0
 15 16  1  0  0  0
 15 38  1  0  0  0
 15 39  1  0  0  0
 15 51  1  0  0  0
 16 17  1  0  0  0
 16 40  1  0  0  0
 16 41  1  0  0  0
 17 18  1  0  0  0
 17 42  1  0  0  0
 17 43  1  0  0  0
 18 19  1  0  0  0
 18 44  1  0  0  0
 19 20  2  0  0  0
 19 24  1  0  0  0
 20 21  1  0  0  0
 20 45  1  0  0  0
 21 22  2  0  0  0
 21 46  1  0  0  0
 22 23  1  0  0  0
 22 47  1  0  0  0
 23 24  2  0  0  0
 23 48  1  0  0  0
 24 49  1  0  0  0
 26 50  1  0  0  0
 51 52  1  0  0  0
 51 53  1  0  0  0
M  CHG  1  51   1
M  END
> <energy>
92.545

> <i_ionizer_Ion_state_n>
1

> <i_ionizer_Tot_Q>
1

> <s_ionizer_Ion_centers>
51

> <s_ionizer_Ion_types>
N5

> <s_ionizer_Ion_ctrs_in>
15

> <r_ionizer_Ionization_penalty>
0.000148807

> <r_ionizer_Ionization_penalty_charging>
0.000148807

> <r_ionizer_Ionization_penalty_neutral>
0

$$$$
ZINC001211869299
                    3D
 Schrodinger Suite 2019-4.
 53 56  0  0  1  0            999 V2000
    4.6612    2.7420    0.4898 C   0  0  0  0  0  0
    4.0634    1.3465    0.6108 C   0  0  0  0  0  0
    4.3023    0.7989    2.0161 C   0  0  0  0  0  0
    4.7066    0.5043   -0.3698 O   0  0  0  0  0  0
    3.8066   -0.1339   -1.1821 C   0  0  0  0  0  0
    3.8984    0.0439   -2.5586 C   0  0  0  0  0  0
    2.9005   -0.4801   -3.3871 C   0  0  0  0  0  0
    1.8319   -1.2043   -2.8443 C   0  0  0  0  0  0
    1.7909   -1.4612   -1.4715 C   0  0  0  0  0  0
    0.6603   -2.1281   -0.8382 C   0  0  0  0  0  0
    0.7618   -2.8167    0.3098 N   0  0  0  0  0  0
   -0.5450   -2.8601    0.7819 O   0  0  0  0  0  0
   -1.3138   -2.2210   -0.1471 C   0  0  0  0  0  0
   -2.6928   -1.7942    0.2865 C   0  0  2  0  0  0
   -4.6097   -2.3819    1.7060 C   0  0  0  0  0  0
   -4.4713   -1.0945    2.5109 C   0  0  0  0  0  0
   -3.9035    0.0254    1.6470 C   0  0  0  0  0  0
   -2.5783   -0.3939    0.9798 C   0  0  2  0  0  0
   -2.1054    0.7143    0.0397 C   0  0  0  0  0  0
   -2.8750    1.1022   -1.0690 C   0  0  0  0  0  0
   -2.4442    2.1161   -1.9250 C   0  0  0  0  0  0
   -1.2288    2.7571   -1.6932 C   0  0  0  0  0  0
   -0.4498    2.3828   -0.6032 C   0  0  0  0  0  0
   -0.8822    1.3706    0.2605 C   0  0  0  0  0  0
   -0.6390   -1.8689   -1.2220 N   0  0  0  0  0  0
    2.8050   -0.9455   -0.6528 C   0  0  0  0  0  0
    4.2694    3.4075    1.2659 H   0  0  0  0  0  0
    4.4272    3.1674   -0.4926 H   0  0  0  0  0  0
    5.7510    2.7107    0.5702 H   0  0  0  0  0  0
    2.9831    1.4346    0.4403 H   0  0  0  0  0  0
    3.7567   -0.1376    2.1683 H   0  0  0  0  0  0
    3.9677    1.5118    2.7772 H   0  0  0  0  0  0
    5.3617    0.5772    2.1858 H   0  0  0  0  0  0
    4.7203    0.6098   -2.9844 H   0  0  0  0  0  0
    2.9437   -0.3032   -4.4610 H   0  0  0  0  0  0
    1.0325   -1.5526   -3.4929 H   0  0  0  0  0  0
   -3.3088   -1.7110   -0.6149 H   0  0  0  0  0  0
   -5.0014   -3.1723    2.3597 H   0  0  0  0  0  0
   -5.3409   -2.2461    0.8991 H   0  0  0  0  0  0
   -3.8203   -1.2582    3.3817 H   0  0  0  0  0  0
   -5.4521   -0.7890    2.8995 H   0  0  0  0  0  0
   -3.7346    0.9143    2.2684 H   0  0  0  0  0  0
   -4.6528    0.2998    0.8922 H   0  0  0  0  0  0
   -1.8381   -0.4862    1.7874 H   0  0  0  0  0  0
   -3.8247    0.6164   -1.2823 H   0  0  0  0  0  0
   -3.0528    2.4036   -2.7766 H   0  0  0  0  0  0
   -0.8929    3.5462   -2.3601 H   0  0  0  0  0  0
    0.5013    2.8772   -0.4234 H   0  0  0  0  0  0
   -0.2520    1.0885    1.0999 H   0  0  0  0  0  0
    2.7796   -1.1385    0.4150 H   0  0  0  0  0  0
   -3.3146   -2.8340    1.1671 N   0  3  0  0  0  0
   -3.4618   -3.6901    0.6198 H   0  0  0  0  0  0
   -2.6793   -3.0325    1.9489 H   0  0  0  0  0  0
  1  2  1  0  0  0
  1 27  1  0  0  0
  1 28  1  0  0  0
  1 29  1  0  0  0
  2  3  1  0  0  0
  2  4  1  0  0  0
  2 30  1  0  0  0
  3 31  1  0  0  0
  3 32  1  0  0  0
  3 33  1  0  0  0
  4  5  1  0  0  0
  5  6  2  0  0  0
  5 26  1  0  0  0
  6  7  1  0  0  0
  6 34  1  0  0  0
  7  8  2  0  0  0
  7 35  1  0  0  0
  8  9  1  0  0  0
  8 36  1  0  0  0
  9 10  1  0  0  0
  9 26  2  0  0  0
 10 11  2  0  0  0
 10 25  1  0  0  0
 11 12  1  0  0  0
 12 13  1  0  0  0
 13 14  1  0  0  0
 13 25  2  0  0  0
 14 18  1  0  0  0
 14 37  1  0  0  0
 14 51  1  0  0  0
 15 16  1  0  0  0
 15 38  1  0  0  0
 15 39  1  0  0  0
 15 51  1  0  0  0
 16 17  1  0  0  0
 16 40  1  0  0  0
 16 41  1  0  0  0
 17 18  1  0  0  0
 17 42  1  0  0  0
 17 43  1  0  0  0
 18 19  1  0  0  0
 18 44  1  0  0  0
 19 20  2  0  0  0
 19 24  1  0  0  0
 20 21  1  0  0  0
 20 45  1  0  0  0
 21 22  2  0  0  0
 21 46  1  0  0  0
 22 23  1  0  0  0
 22 47  1  0  0  0
 23 24  2  0  0  0
 23 48  1  0  0  0
 24 49  1  0  0  0
 26 50  1  0  0  0
 51 52  1  0  0  0
 51 53  1  0  0  0
M  CHG  1  51   1
M  END
> <energy>
101.044

> <i_ionizer_Ion_state_n>
1

> <i_ionizer_Tot_Q>
1

> <s_ionizer_Ion_centers>
51

> <s_ionizer_Ion_types>
N5

> <s_ionizer_Ion_ctrs_in>
15

> <r_ionizer_Ionization_penalty>
0.000148807

> <r_ionizer_Ionization_penalty_charging>
0.000148807

> <r_ionizer_Ionization_penalty_neutral>
0

$$$$
ZINC001211869300
                    3D
 Schrodinger Suite 2019-4.
 53 56  0  0  1  0            999 V2000
    3.8190   -2.1468   -1.4698 C   0  0  0  0  0  0
    3.8750   -2.4506    0.0249 C   0  0  0  0  0  0
    4.5432   -3.8063    0.2496 C   0  0  0  0  0  0
    4.6741   -1.4758    0.7041 O   0  0  0  0  0  0
    4.1226   -0.2715    1.0399 C   0  0  0  0  0  0
    4.9983    0.6182    1.6678 C   0  0  0  0  0  0
    4.5688    1.8858    2.0636 C   0  0  0  0  0  0
    3.2510    2.2826    1.8271 C   0  0  0  0  0  0
    2.3645    1.4108    1.1818 C   0  0  0  0  0  0
    1.0025    1.8090    0.8472 C   0  0  0  0  0  0
    0.3276    2.8106    1.4333 N   0  0  0  0  0  0
   -0.9003    2.8171    0.7624 O   0  0  0  0  0  0
   -0.8365    1.8239   -0.1710 C   0  0  0  0  0  0
   -2.0137    1.6280   -1.0865 C   0  0  1  0  0  0
   -3.6057    2.8793   -2.5122 C   0  0  0  0  0  0
   -4.2497    1.5048   -2.6404 C   0  0  0  0  0  0
   -4.4452    0.8464   -1.2796 C   0  0  0  0  0  0
   -3.2376    1.0404   -0.3325 C   0  0  1  0  0  0
   -2.9887   -0.2570    0.4324 C   0  0  0  0  0  0
   -2.1485   -1.2726   -0.0507 C   0  0  0  0  0  0
   -1.9475   -2.4447    0.6847 C   0  0  0  0  0  0
   -2.6009   -2.6277    1.9004 C   0  0  0  0  0  0
   -3.4562   -1.6417    2.3823 C   0  0  0  0  0  0
   -3.6493   -0.4655    1.6544 C   0  0  0  0  0  0
    0.3070    1.1780   -0.1622 N   0  0  0  0  0  0
    2.8108    0.1312    0.8034 C   0  0  0  0  0  0
    4.8267   -2.0336   -1.8818 H   0  0  0  0  0  0
    3.2963   -1.2062   -1.6666 H   0  0  0  0  0  0
    3.3045   -2.9407   -2.0189 H   0  0  0  0  0  0
    2.8706   -2.5144    0.4574 H   0  0  0  0  0  0
    3.9868   -4.6067   -0.2481 H   0  0  0  0  0  0
    5.5719   -3.8080   -0.1262 H   0  0  0  0  0  0
    4.5975   -4.0318    1.3201 H   0  0  0  0  0  0
    6.0271    0.3168    1.8486 H   0  0  0  0  0  0
    5.2652    2.5659    2.5502 H   0  0  0  0  0  0
    2.9342    3.2779    2.1313 H   0  0  0  0  0  0
   -1.6891    0.9155   -1.8563 H   0  0  0  0  0  0
   -3.4404    3.2967   -3.5119 H   0  0  0  0  0  0
   -4.2999    3.5596   -2.0061 H   0  0  0  0  0  0
   -3.6260    0.8610   -3.2729 H   0  0  0  0  0  0
   -5.2163    1.5901   -3.1493 H   0  0  0  0  0  0
   -5.3338    1.2700   -0.7954 H   0  0  0  0  0  0
   -4.6754   -0.2126   -1.4419 H   0  0  0  0  0  0
   -3.5266    1.7968    0.4136 H   0  0  0  0  0  0
   -1.6282   -1.1733   -0.9998 H   0  0  0  0  0  0
   -1.2772   -3.2140    0.3095 H   0  0  0  0  0  0
   -2.4429   -3.5386    2.4728 H   0  0  0  0  0  0
   -3.9695   -1.7814    3.3287 H   0  0  0  0  0  0
   -4.3221    0.2921    2.0486 H   0  0  0  0  0  0
    2.0993   -0.5272    0.3149 H   0  0  0  0  0  0
   -2.3215    2.9234   -1.7783 N   0  3  0  0  0  0
   -2.3692    3.6699   -1.0749 H   0  0  0  0  0  0
   -1.5678    3.1288   -2.4447 H   0  0  0  0  0  0
  1  2  1  0  0  0
  1 27  1  0  0  0
  1 28  1  0  0  0
  1 29  1  0  0  0
  2  3  1  0  0  0
  2  4  1  0  0  0
  2 30  1  0  0  0
  3 31  1  0  0  0
  3 32  1  0  0  0
  3 33  1  0  0  0
  4  5  1  0  0  0
  5  6  2  0  0  0
  5 26  1  0  0  0
  6  7  1  0  0  0
  6 34  1  0  0  0
  7  8  2  0  0  0
  7 35  1  0  0  0
  8  9  1  0  0  0
  8 36  1  0  0  0
  9 10  1  0  0  0
  9 26  2  0  0  0
 10 11  2  0  0  0
 10 25  1  0  0  0
 11 12  1  0  0  0
 12 13  1  0  0  0
 13 14  1  0  0  0
 13 25  2  0  0  0
 14 18  1  0  0  0
 14 37  1  0  0  0
 14 51  1  0  0  0
 15 16  1  0  0  0
 15 38  1  0  0  0
 15 39  1  0  0  0
 15 51  1  0  0  0
 16 17  1  0  0  0
 16 40  1  0  0  0
 16 41  1  0  0  0
 17 18  1  0  0  0
 17 42  1  0  0  0
 17 43  1  0  0  0
 18 19  1  0  0  0
 18 44  1  0  0  0
 19 20  2  0  0  0
 19 24  1  0  0  0
 20 21  1  0  0  0
 20 45  1  0  0  0
 21 22  2  0  0  0
 21 46  1  0  0  0
 22 23  1  0  0  0
 22 47  1  0  0  0
 23 24  2  0  0  0
 23 48  1  0  0  0
 24 49  1  0  0  0
 26 50  1  0  0  0
 51 52  1  0  0  0
 51 53  1  0  0  0
M  CHG  1  51   1
M  END
> <energy>
99.2126

> <i_ionizer_Ion_state_n>
1

> <i_ionizer_Tot_Q>
1

> <s_ionizer_Ion_centers>
51

> <s_ionizer_Ion_types>
N5

> <s_ionizer_Ion_ctrs_in>
15

> <r_ionizer_Ionization_penalty>
0.000148807

> <r_ionizer_Ionization_penalty_charging>
0.000148807

> <r_ionizer_Ionization_penalty_neutral>
0

$$$$
ZINC001211869301
                    3D
 Schrodinger Suite 2019-4.
 53 56  0  0  1  0            999 V2000
    5.6978    1.2967   -2.2579 C   0  0  0  0  0  0
    4.5272    1.3801   -1.2807 C   0  0  0  0  0  0
    3.9904    2.8118   -1.2601 C   0  0  0  0  0  0
    5.0290    1.0058    0.0095 O   0  0  0  0  0  0
    4.1561    0.4892    0.9281 C   0  0  0  0  0  0
    4.7431    0.0198    2.1045 C   0  0  0  0  0  0
    3.9616   -0.5033    3.1379 C   0  0  0  0  0  0
    2.5745   -0.5620    3.0011 C   0  0  0  0  0  0
    1.9667   -0.0935    1.8308 C   0  0  0  0  0  0
    0.5156   -0.0960    1.6719 C   0  0  0  0  0  0
   -0.3503   -0.6265    2.5504 N   0  0  0  0  0  0
   -1.5989   -0.3452    1.9920 O   0  0  0  0  0  0
   -1.3677    0.3329    0.8316 C   0  0  0  0  0  0
   -2.5414    0.8283    0.0329 C   0  0  1  0  0  0
   -4.1383    1.5023    1.7743 C   0  0  0  0  0  0
   -5.1495    0.4623    1.2998 C   0  0  0  0  0  0
   -4.4599   -0.7416    0.6589 C   0  0  0  0  0  0
   -3.5048   -0.2897   -0.4647 C   0  0  2  0  0  0
   -2.7997   -1.4119   -1.2196 C   0  0  0  0  0  0
   -2.7560   -2.7336   -0.7514 C   0  0  0  0  0  0
   -2.1005   -3.7306   -1.4784 C   0  0  0  0  0  0
   -1.4729   -3.4240   -2.6808 C   0  0  0  0  0  0
   -1.5049   -2.1193   -3.1623 C   0  0  0  0  0  0
   -2.1673   -1.1243   -2.4423 C   0  0  0  0  0  0
   -0.0872    0.4959    0.5818 N   0  0  0  0  0  0
    2.7696    0.4230    0.7984 C   0  0  0  0  0  0
    5.3839    1.5813   -3.2677 H   0  0  0  0  0  0
    6.1002    0.2777   -2.2874 H   0  0  0  0  0  0
    6.5172    1.9533   -1.9431 H   0  0  0  0  0  0
    3.7657    0.6754   -1.6315 H   0  0  0  0  0  0
    3.6553    3.1166   -2.2571 H   0  0  0  0  0  0
    4.7650    3.5108   -0.9246 H   0  0  0  0  0  0
    3.1518    2.9250   -0.5655 H   0  0  0  0  0  0
    5.8229    0.0664    2.2221 H   0  0  0  0  0  0
    4.4311   -0.8505    4.0537 H   0  0  0  0  0  0
    1.9757   -0.9618    3.8158 H   0  0  0  0  0  0
   -2.0914    1.2797   -0.8634 H   0  0  0  0  0  0
   -3.5464    1.1084    2.6077 H   0  0  0  0  0  0
   -4.6706    2.3762    2.1710 H   0  0  0  0  0  0
   -5.7609    0.1275    2.1460 H   0  0  0  0  0  0
   -5.8309    0.9181    0.5707 H   0  0  0  0  0  0
   -3.9212   -1.2976    1.4353 H   0  0  0  0  0  0
   -5.2238   -1.4200    0.2554 H   0  0  0  0  0  0
   -4.1610    0.1815   -1.2151 H   0  0  0  0  0  0
   -3.2248   -3.0188    0.1872 H   0  0  0  0  0  0
   -2.0833   -4.7494   -1.0998 H   0  0  0  0  0  0
   -0.9602   -4.2013   -3.2409 H   0  0  0  0  0  0
   -1.0174   -1.8754   -4.1017 H   0  0  0  0  0  0
   -2.1819   -0.1140   -2.8487 H   0  0  0  0  0  0
    2.2740    0.7865   -0.0960 H   0  0  0  0  0  0
   -3.2622    1.9709    0.6829 N   0  3  0  0  0  0
   -2.5719    2.6268    1.0668 H   0  0  0  0  0  0
   -3.8343    2.4500   -0.0224 H   0  0  0  0  0  0
  1  2  1  0  0  0
  1 27  1  0  0  0
  1 28  1  0  0  0
  1 29  1  0  0  0
  2  3  1  0  0  0
  2  4  1  0  0  0
  2 30  1  0  0  0
  3 31  1  0  0  0
  3 32  1  0  0  0
  3 33  1  0  0  0
  4  5  1  0  0  0
  5  6  2  0  0  0
  5 26  1  0  0  0
  6  7  1  0  0  0
  6 34  1  0  0  0
  7  8  2  0  0  0
  7 35  1  0  0  0
  8  9  1  0  0  0
  8 36  1  0  0  0
  9 10  1  0  0  0
  9 26  2  0  0  0
 10 11  2  0  0  0
 10 25  1  0  0  0
 11 12  1  0  0  0
 12 13  1  0  0  0
 13 14  1  0  0  0
 13 25  2  0  0  0
 14 18  1  0  0  0
 14 37  1  0  0  0
 14 51  1  0  0  0
 15 16  1  0  0  0
 15 38  1  0  0  0
 15 39  1  0  0  0
 15 51  1  0  0  0
 16 17  1  0  0  0
 16 40  1  0  0  0
 16 41  1  0  0  0
 17 18  1  0  0  0
 17 42  1  0  0  0
 17 43  1  0  0  0
 18 19  1  0  0  0
 18 44  1  0  0  0
 19 20  2  0  0  0
 19 24  1  0  0  0
 20 21  1  0  0  0
 20 45  1  0  0  0
 21 22  2  0  0  0
 21 46  1  0  0  0
 22 23  1  0  0  0
 22 47  1  0  0  0
 23 24  2  0  0  0
 23 48  1  0  0  0
 24 49  1  0  0  0
 26 50  1  0  0  0
 51 52  1  0  0  0
 51 53  1  0  0  0
M  CHG  1  51   1
M  END
> <energy>
95.521

> <i_ionizer_Ion_state_n>
1

> <i_ionizer_Tot_Q>
1

> <s_ionizer_Ion_centers>
51

> <s_ionizer_Ion_types>
N5

> <s_ionizer_Ion_ctrs_in>
15

> <r_ionizer_Ionization_penalty>
0.000148807

> <r_ionizer_Ionization_penalty_charging>
0.000148807

> <r_ionizer_Ionization_penalty_neutral>
0

$$$$
ZINC001211869358
                    3D
 Schrodinger Suite 2019-4.
 44 46  0  0  1  0            999 V2000
    4.2288   -1.5880    1.0829 C   0  0  0  0  0  0
    3.6429   -1.7306   -0.3128 C   0  0  0  0  0  0
    4.2672   -0.7832   -1.3395 C   0  0  0  0  0  0
    4.1397    0.7022   -1.0004 C   0  0  0  0  0  0
    2.8161    1.0239   -0.5517 O   0  0  0  0  0  0
    1.8731    1.1544   -1.5136 C   0  0  0  0  0  0
    2.0814    1.1284   -2.7190 O   0  0  0  0  0  0
    0.6228    1.2965   -1.0042 N   0  0  0  0  0  0
    0.2660    1.3267    0.4034 C   0  0  2  0  0  0
   -0.9433    0.4688    0.6179 C   0  0  0  0  0  0
   -1.8059   -0.0178   -0.2482 N   0  0  0  0  0  0
   -2.7211   -0.6417    0.5683 C   0  0  0  0  0  0
   -3.8890   -1.3176    0.0299 C   0  0  0  0  0  0
   -3.8883   -1.7578   -1.2988 C   0  0  0  0  0  0
   -5.0109   -2.3943   -1.8184 C   0  0  0  0  0  0
   -4.9972   -2.8146   -3.0892 F   0  0  0  0  0  0
   -6.1472   -2.5945   -1.0456 C   0  0  0  0  0  0
   -6.1529   -2.1519    0.2721 C   0  0  0  0  0  0
   -7.5604   -2.3730    1.2358 Cl  0  0  0  0  0  0
   -5.0335   -1.5188    0.8149 C   0  0  0  0  0  0
   -2.4414   -0.5548    1.8771 N   0  0  0  0  0  0
   -1.2576    0.1778    1.9141 O   0  0  0  0  0  0
    0.0268    2.7661    0.7912 C   0  0  0  0  0  0
    0.2856    3.2060    2.2133 C   0  0  0  0  0  0
    1.1747    3.6976    1.1044 C   0  0  0  0  0  0
    3.8475   -2.3810    1.7335 H   0  0  0  0  0  0
    3.9558   -0.6301    1.5348 H   0  0  0  0  0  0
    5.3194   -1.6646    1.0595 H   0  0  0  0  0  0
    2.5584   -1.5766   -0.2703 H   0  0  0  0  0  0
    3.7948   -2.7617   -0.6541 H   0  0  0  0  0  0
    5.3255   -1.0313   -1.4820 H   0  0  0  0  0  0
    3.7734   -0.9703   -2.2998 H   0  0  0  0  0  0
    4.4272    1.3286   -1.8532 H   0  0  0  0  0  0
    4.8239    0.9596   -0.1847 H   0  0  0  0  0  0
   -0.1161    1.3546   -1.6915 H   0  0  0  0  0  0
    1.0841    0.9013    0.9969 H   0  0  0  0  0  0
   -3.0218   -1.6142   -1.9395 H   0  0  0  0  0  0
   -7.0099   -3.0866   -1.4810 H   0  0  0  0  0  0
   -5.0619   -1.1686    1.8452 H   0  0  0  0  0  0
   -0.8299    3.1960    0.2792 H   0  0  0  0  0  0
    0.7057    2.4899    2.9126 H   0  0  0  0  0  0
   -0.4218    3.8984    2.6555 H   0  0  0  0  0  0
    1.0833    4.7364    0.8087 H   0  0  0  0  0  0
    2.1862    3.3106    1.0465 H   0  0  0  0  0  0
  1  2  1  0  0  0
  1 26  1  0  0  0
  1 27  1  0  0  0
  1 28  1  0  0  0
  2  3  1  0  0  0
  2 29  1  0  0  0
  2 30  1  0  0  0
  3  4  1  0  0  0
  3 31  1  0  0  0
  3 32  1  0  0  0
  4  5  1  0  0  0
  4 33  1  0  0  0
  4 34  1  0  0  0
  5  6  1  0  0  0
  6  7  2  0  0  0
  6  8  1  0  0  0
  8  9  1  0  0  0
  8 35  1  0  0  0
  9 10  1  0  0  0
  9 23  1  0  0  0
  9 36  1  0  0  0
 10 11  2  0  0  0
 10 22  1  0  0  0
 11 12  1  0  0  0
 12 13  1  0  0  0
 12 21  2  0  0  0
 13 14  2  0  0  0
 13 20  1  0  0  0
 14 15  1  0  0  0
 14 37  1  0  0  0
 15 16  1  0  0  0
 15 17  2  0  0  0
 17 18  1  0  0  0
 17 38  1  0  0  0
 18 19  1  0  0  0
 18 20  2  0  0  0
 20 39  1  0  0  0
 21 22  1  0  0  0
 23 24  1  0  0  0
 23 25  1  0  0  0
 23 40  1  0  0  0
 24 25  1  0  0  0
 24 41  1  0  0  0
 24 42  1  0  0  0
 25 43  1  0  0  0
 25 44  1  0  0  0
M  END
> <energy>
-26.0745

> <i_ionizer_Ion_state_n>
0

> <i_ionizer_Tot_Q>
0

> <s_ionizer_Ion_centers>


> <s_ionizer_Ion_types>


> <s_ionizer_Ion_ctrs_in>


> <r_ionizer_Ionization_penalty>
0

> <r_ionizer_Ionization_penalty_charging>
0

> <r_ionizer_Ionization_penalty_neutral>
0

$$$$
ZINC001211869359
                    3D
 Schrodinger Suite 2019-4.
 44 46  0  0  1  0            999 V2000
    4.2844   -0.3744    0.3879 C   0  0  0  0  0  0
    2.9263   -0.8729   -0.0931 C   0  0  0  0  0  0
    2.6476   -0.6061   -1.5751 C   0  0  0  0  0  0
    2.3440    0.8484   -1.9276 C   0  0  0  0  0  0
    1.1636    1.3272   -1.2615 O   0  0  0  0  0  0
    0.8413    2.5938   -1.6216 C   0  0  0  0  0  0
    1.4260    3.2510   -2.4844 O   0  0  0  0  0  0
   -0.1861    3.1552   -0.9368 N   0  0  0  0  0  0
   -0.9555    2.6663    0.1941 C   0  0  1  0  0  0
   -1.7199    1.4109   -0.0981 C   0  0  0  0  0  0
   -1.4877    0.1586    0.2301 N   0  0  0  0  0  0
   -2.6333   -0.4740   -0.1910 C   0  0  0  0  0  0
   -2.8644   -1.8937    0.0134 C   0  0  0  0  0  0
   -1.8290   -2.7511    0.4086 C   0  0  0  0  0  0
   -2.0837   -4.1112    0.5822 C   0  0  0  0  0  0
   -1.0826   -4.9222    0.9527 F   0  0  0  0  0  0
   -3.3508   -4.6413    0.3771 C   0  0  0  0  0  0
   -4.3819   -3.7928    0.0036 C   0  0  0  0  0  0
   -5.9623   -4.4203   -0.2434 Cl  0  0  0  0  0  0
   -4.1491   -2.4287   -0.1753 C   0  0  0  0  0  0
   -3.5388    0.3403   -0.7535 N   0  0  0  0  0  0
   -2.9391    1.5891   -0.6968 O   0  0  0  0  0  0
   -0.2577    2.7639    1.5325 C   0  0  0  0  0  0
    1.2404    2.9136    1.7378 C   0  0  0  0  0  0
    0.5580    1.6338    2.1111 C   0  0  0  0  0  0
    4.5066   -0.7956    1.3760 H   0  0  0  0  0  0
    4.2976    0.7147    0.4866 H   0  0  0  0  0  0
    5.0920   -0.6761   -0.2886 H   0  0  0  0  0  0
    2.8809   -1.9563    0.0794 H   0  0  0  0  0  0
    2.1462   -0.4289    0.5285 H   0  0  0  0  0  0
    3.4997   -0.9505   -2.1750 H   0  0  0  0  0  0
    1.7890   -1.2221   -1.8652 H   0  0  0  0  0  0
    3.1980    1.4802   -1.6579 H   0  0  0  0  0  0
    2.1956    0.9095   -3.0118 H   0  0  0  0  0  0
   -0.3184    4.1216   -1.1947 H   0  0  0  0  0  0
   -1.7416    3.4344    0.2727 H   0  0  0  0  0  0
   -0.8204   -2.3762    0.5701 H   0  0  0  0  0  0
   -3.5142   -5.7060    0.5123 H   0  0  0  0  0  0
   -4.9749   -1.7831   -0.4696 H   0  0  0  0  0  0
   -0.9073    3.2707    2.2441 H   0  0  0  0  0  0
    1.5727    3.5652    2.5441 H   0  0  0  0  0  0
    1.9382    2.8756    0.9069 H   0  0  0  0  0  0
    0.4082    1.4043    3.1582 H   0  0  0  0  0  0
    0.7425    0.7551    1.5111 H   0  0  0  0  0  0
  1  2  1  0  0  0
  1 26  1  0  0  0
  1 27  1  0  0  0
  1 28  1  0  0  0
  2  3  1  0  0  0
  2 29  1  0  0  0
  2 30  1  0  0  0
  3  4  1  0  0  0
  3 31  1  0  0  0
  3 32  1  0  0  0
  4  5  1  0  0  0
  4 33  1  0  0  0
  4 34  1  0  0  0
  5  6  1  0  0  0
  6  7  2  0  0  0
  6  8  1  0  0  0
  8  9  1  0  0  0
  8 35  1  0  0  0
  9 10  1  0  0  0
  9 23  1  0  0  0
  9 36  1  0  0  0
 10 11  2  0  0  0
 10 22  1  0  0  0
 11 12  1  0  0  0
 12 13  1  0  0  0
 12 21  2  0  0  0
 13 14  2  0  0  0
 13 20  1  0  0  0
 14 15  1  0  0  0
 14 37  1  0  0  0
 15 16  1  0  0  0
 15 17  2  0  0  0
 17 18  1  0  0  0
 17 38  1  0  0  0
 18 19  1  0  0  0
 18 20  2  0  0  0
 20 39  1  0  0  0
 21 22  1  0  0  0
 23 24  1  0  0  0
 23 25  1  0  0  0
 23 40  1  0  0  0
 24 25  1  0  0  0
 24 41  1  0  0  0
 24 42  1  0  0  0
 25 43  1  0  0  0
 25 44  1  0  0  0
M  END
> <energy>
-14.5029

> <i_ionizer_Ion_state_n>
0

> <i_ionizer_Tot_Q>
0

> <s_ionizer_Ion_centers>


> <s_ionizer_Ion_types>


> <s_ionizer_Ion_ctrs_in>


> <r_ionizer_Ionization_penalty>
0

> <r_ionizer_Ionization_penalty_charging>
0

> <r_ionizer_Ionization_penalty_neutral>
0

$$$$
ZINC001211869400
                    3D
 Schrodinger Suite 2019-4.
 40 42  0  0  1  0            999 V2000
    0.0631   -1.7070   -2.4149 O   0  0  0  0  0  0
    0.6254   -1.6681   -1.3227 C   0  0  0  0  0  0
   -0.2242   -1.8903   -0.1461 C   0  0  0  0  0  0
   -1.1186   -0.8576    0.1708 C   0  0  0  0  0  0
   -2.0032   -0.9717    1.2472 C   0  0  0  0  0  0
   -2.9196    0.0520    1.5970 N   0  0  0  0  0  0
   -3.1597    1.2207    0.8461 C   0  0  0  0  0  0
   -3.8603    1.1845   -0.3594 C   0  0  0  0  0  0
   -4.0425    2.2513   -1.1751 N   0  0  0  0  0  0
   -3.4643    3.4117   -0.7885 C   0  0  0  0  0  0
   -3.7187    4.6868   -1.9095 Cl  0  0  0  0  0  0
   -2.7461    3.5618    0.3927 C   0  0  0  0  0  0
   -2.0173    5.0464    0.8718 Cl  0  0  0  0  0  0
   -2.5921    2.4416    1.2148 C   0  0  0  0  0  0
   -2.0093   -2.1697    1.9762 C   0  0  0  0  0  0
   -1.1469   -3.2203    1.6333 C   0  0  0  0  0  0
   -0.2526   -3.0749    0.5701 C   0  0  0  0  0  0
    0.5710   -4.0877    0.2708 F   0  0  0  0  0  0
    1.9258   -1.2224   -1.1468 N   0  0  0  0  0  0
    2.7584   -1.4263    0.0344 C   0  0  0  0  0  0
    3.1181   -0.0905    0.6802 C   0  0  0  0  0  0
    3.7463    0.8655   -0.3388 C   0  0  0  0  0  0
    2.8805    0.9913   -1.5960 C   0  0  0  0  0  0
    2.5273   -0.3795   -2.1821 C   0  0  0  0  0  0
   -1.0951    0.0426   -0.4403 H   0  0  0  0  0  0
   -2.8796    0.2289    2.6005 H   0  0  0  0  0  0
   -4.3191    0.2589   -0.7040 H   0  0  0  0  0  0
   -1.9990    2.5197    2.1222 H   0  0  0  0  0  0
   -2.7030   -2.3025    2.8054 H   0  0  0  0  0  0
   -1.1768   -4.1561    2.1848 H   0  0  0  0  0  0
    3.6725   -1.9258   -0.3103 H   0  0  0  0  0  0
    2.2828   -2.0945    0.7552 H   0  0  0  0  0  0
    2.2140    0.3696    1.1017 H   0  0  0  0  0  0
    3.8135   -0.2501    1.5130 H   0  0  0  0  0  0
    3.8779    1.8540    0.1164 H   0  0  0  0  0  0
    4.7467    0.5143   -0.6132 H   0  0  0  0  0  0
    1.9563    1.5234   -1.3334 H   0  0  0  0  0  0
    3.3965    1.6020   -2.3457 H   0  0  0  0  0  0
    3.4238   -0.8884   -2.5479 H   0  0  0  0  0  0
    1.8479   -0.2434   -3.0298 H   0  0  0  0  0  0
  1  2  2  0  0  0
  2  3  1  0  0  0
  2 19  1  0  0  0
  3  4  2  0  0  0
  3 17  1  0  0  0
  4  5  1  0  0  0
  4 25  1  0  0  0
  5  6  1  0  0  0
  5 15  2  0  0  0
  6  7  1  0  0  0
  6 26  1  0  0  0
  7  8  2  0  0  0
  7 14  1  0  0  0
  8  9  1  0  0  0
  8 27  1  0  0  0
  9 10  2  0  0  0
 10 11  1  0  0  0
 10 12  1  0  0  0
 12 13  1  0  0  0
 12 14  2  0  0  0
 14 28  1  0  0  0
 15 16  1  0  0  0
 15 29  1  0  0  0
 16 17  2  0  0  0
 16 30  1  0  0  0
 17 18  1  0  0  0
 19 20  1  0  0  0
 19 24  1  0  0  0
 20 21  1  0  0  0
 20 31  1  0  0  0
 20 32  1  0  0  0
 21 22  1  0  0  0
 21 33  1  0  0  0
 21 34  1  0  0  0
 22 23  1  0  0  0
 22 35  1  0  0  0
 22 36  1  0  0  0
 23 24  1  0  0  0
 23 37  1  0  0  0
 23 38  1  0  0  0
 24 39  1  0  0  0
 24 40  1  0  0  0
M  END
> <energy>
61.1475

> <i_ionizer_Ion_state_n>
0

> <i_ionizer_Tot_Q>
0

> <s_ionizer_Ion_centers>


> <s_ionizer_Ion_types>


> <s_ionizer_Ion_ctrs_in>


> <r_ionizer_Ionization_penalty>
0.00741239

> <r_ionizer_Ionization_penalty_charging>
0

> <r_ionizer_Ionization_penalty_neutral>
0.00741239

$$$$
ZINC001211869436
                    3D
 Schrodinger Suite 2019-4.
 43 45  0  0  1  0            999 V2000
    2.4435   -3.1328   -1.0363 O   0  0  0  0  0  0
    1.8116   -2.1142   -0.7547 C   0  0  0  0  0  0
    0.4720   -2.2950   -0.1878 C   0  0  0  0  0  0
   -0.6740   -1.8417   -0.8446 C   0  0  0  0  0  0
   -1.9237   -1.9451   -0.2112 C   0  0  0  0  0  0
   -3.0475   -1.2884   -0.7671 N   0  0  0  0  0  0
   -3.0670    0.1221   -0.8869 C   0  0  0  0  0  0
   -3.4845    0.7272   -2.0694 C   0  0  0  0  0  0
   -3.5630    2.0649   -2.2452 N   0  0  0  0  0  0
   -3.2539    2.8387   -1.1780 C   0  0  0  0  0  0
   -2.8674    2.3375    0.0593 C   0  0  0  0  0  0
   -2.5886    3.2763    1.1904 C   0  0  0  0  0  0
   -2.1025    2.6565    2.3059 F   0  0  0  0  0  0
   -3.7020    3.9475    1.5923 F   0  0  0  0  0  0
   -1.6685    4.2263    0.8703 F   0  0  0  0  0  0
   -2.7832    0.9530    0.2015 C   0  0  0  0  0  0
   -2.0109   -2.5594    1.0459 C   0  0  0  0  0  0
   -0.8706   -3.0673    1.6672 C   0  0  0  0  0  0
    0.3704   -2.9139    1.0565 C   0  0  0  0  0  0
    1.4637   -3.3134    1.7180 F   0  0  0  0  0  0
    2.3326   -0.8265   -0.8622 N   0  0  0  0  0  0
    3.7844   -0.7093   -1.0126 C   0  0  0  0  0  0
    4.3782    0.3896   -0.1186 C   0  0  0  0  0  0
    3.5026    0.7285    1.0914 C   0  0  0  0  0  0
    2.0406    1.0202    0.7377 C   0  0  0  0  0  0
    1.6303    0.4348   -0.6111 C   0  0  0  0  0  0
   -0.5928   -1.3643   -1.8185 H   0  0  0  0  0  0
   -3.8944   -1.5847   -0.2791 H   0  0  0  0  0  0
   -3.7411    0.1271   -2.9390 H   0  0  0  0  0  0
   -3.3408    3.9094   -1.3497 H   0  0  0  0  0  0
   -2.5021    0.5199    1.1623 H   0  0  0  0  0  0
   -2.9596   -2.6067    1.5728 H   0  0  0  0  0  0
   -0.9222   -3.5335    2.6505 H   0  0  0  0  0  0
    4.0040   -0.5039   -2.0689 H   0  0  0  0  0  0
    4.2679   -1.6673   -0.7825 H   0  0  0  0  0  0
    5.3679    0.0685    0.2290 H   0  0  0  0  0  0
    4.5422    1.2934   -0.7130 H   0  0  0  0  0  0
    3.5234   -0.1184    1.7864 H   0  0  0  0  0  0
    3.9322    1.5755    1.6369 H   0  0  0  0  0  0
    1.8592    2.1013    0.7217 H   0  0  0  0  0  0
    1.3900    0.6147    1.5257 H   0  0  0  0  0  0
    1.8993    1.1195   -1.4259 H   0  0  0  0  0  0
    0.5439    0.3335   -0.6593 H   0  0  0  0  0  0
  1  2  2  0  0  0
  2  3  1  0  0  0
  2 21  1  0  0  0
  3  4  2  0  0  0
  3 19  1  0  0  0
  4  5  1  0  0  0
  4 27  1  0  0  0
  5  6  1  0  0  0
  5 17  2  0  0  0
  6  7  1  0  0  0
  6 28  1  0  0  0
  7  8  2  0  0  0
  7 16  1  0  0  0
  8  9  1  0  0  0
  8 29  1  0  0  0
  9 10  2  0  0  0
 10 11  1  0  0  0
 10 30  1  0  0  0
 11 12  1  0  0  0
 11 16  2  0  0  0
 12 13  1  0  0  0
 12 14  1  0  0  0
 12 15  1  0  0  0
 16 31  1  0  0  0
 17 18  1  0  0  0
 17 32  1  0  0  0
 18 19  2  0  0  0
 18 33  1  0  0  0
 19 20  1  0  0  0
 21 22  1  0  0  0
 21 26  1  0  0  0
 22 23  1  0  0  0
 22 34  1  0  0  0
 22 35  1  0  0  0
 23 24  1  0  0  0
 23 36  1  0  0  0
 23 37  1  0  0  0
 24 25  1  0  0  0
 24 38  1  0  0  0
 24 39  1  0  0  0
 25 26  1  0  0  0
 25 40  1  0  0  0
 25 41  1  0  0  0
 26 42  1  0  0  0
 26 43  1  0  0  0
M  END
> <energy>
60.6923

> <i_ionizer_Ion_state_n>
0

> <i_ionizer_Tot_Q>
0

> <s_ionizer_Ion_centers>


> <s_ionizer_Ion_types>


> <s_ionizer_Ion_ctrs_in>


> <r_ionizer_Ionization_penalty>
0.00741239

> <r_ionizer_Ionization_penalty_charging>
0

> <r_ionizer_Ionization_penalty_neutral>
0.00741239

$$$$
ZINC001211869480
                    3D
 Schrodinger Suite 2019-4.
 40 42  0  0  1  0            999 V2000
    2.9493   -2.0492   -1.5938 O   0  0  0  0  0  0
    2.1324   -1.2852   -1.0937 C   0  0  0  0  0  0
    0.7964   -1.8236   -0.7931 C   0  0  0  0  0  0
   -0.3381   -1.3050   -1.4297 C   0  0  0  0  0  0
   -1.6119   -1.6784   -0.9805 C   0  0  0  0  0  0
   -2.7547   -0.9793   -1.4404 N   0  0  0  0  0  0
   -3.3782    0.0515   -0.6747 C   0  0  0  0  0  0
   -3.1831    0.0968    0.6688 N   0  0  0  0  0  0
   -3.8124    1.0706    1.3724 C   0  0  0  0  0  0
   -4.6501    2.0171    0.8054 C   0  0  0  0  0  0
   -5.4184    3.2185    1.7635 Cl  0  0  0  0  0  0
   -4.8558    1.9735   -0.5657 C   0  0  0  0  0  0
   -4.2225    0.9796   -1.3127 C   0  0  0  0  0  0
   -4.4518    0.9614   -3.0230 Cl  0  0  0  0  0  0
   -1.7184   -2.6120    0.0646 C   0  0  0  0  0  0
   -0.5820   -3.1934    0.6322 C   0  0  0  0  0  0
    0.6749   -2.7894    0.2055 C   0  0  0  0  0  0
    1.7536   -3.2898    0.8189 F   0  0  0  0  0  0
    2.4033    0.0571   -0.7921 N   0  0  0  0  0  0
    3.8012    0.4850   -0.7930 C   0  0  0  0  0  0
    4.3276    0.5277    0.6417 C   0  0  0  0  0  0
    3.4552    1.4399    1.5209 C   0  0  0  0  0  0
    1.9618    1.1177    1.3816 C   0  0  0  0  0  0
    1.5176    0.9748   -0.0699 C   0  0  0  0  0  0
   -0.2160   -0.5522   -2.2028 H   0  0  0  0  0  0
   -2.6285   -0.6418   -2.3906 H   0  0  0  0  0  0
   -3.6213    1.0618    2.4413 H   0  0  0  0  0  0
   -5.4839    2.7146   -1.0550 H   0  0  0  0  0  0
   -2.7014   -2.8637    0.4550 H   0  0  0  0  0  0
   -0.6714   -3.9172    1.4388 H   0  0  0  0  0  0
    4.4294   -0.1711   -1.4063 H   0  0  0  0  0  0
    3.8330    1.4899   -1.2302 H   0  0  0  0  0  0
    4.3343   -0.4822    1.0771 H   0  0  0  0  0  0
    5.3624    0.8980    0.6484 H   0  0  0  0  0  0
    3.7558    1.3461    2.5721 H   0  0  0  0  0  0
    3.6362    2.4857    1.2409 H   0  0  0  0  0  0
    1.7594    0.1724    1.9032 H   0  0  0  0  0  0
    1.3756    1.8962    1.8812 H   0  0  0  0  0  0
    0.4732    0.6591   -0.1020 H   0  0  0  0  0  0
    1.5675    1.9385   -0.5844 H   0  0  0  0  0  0
  1  2  2  0  0  0
  2  3  1  0  0  0
  2 19  1  0  0  0
  3  4  2  0  0  0
  3 17  1  0  0  0
  4  5  1  0  0  0
  4 25  1  0  0  0
  5  6  1  0  0  0
  5 15  2  0  0  0
  6  7  1  0  0  0
  6 26  1  0  0  0
  7  8  2  0  0  0
  7 13  1  0  0  0
  8  9  1  0  0  0
  9 10  2  0  0  0
  9 27  1  0  0  0
 10 11  1  0  0  0
 10 12  1  0  0  0
 12 13  2  0  0  0
 12 28  1  0  0  0
 13 14  1  0  0  0
 15 16  1  0  0  0
 15 29  1  0  0  0
 16 17  2  0  0  0
 16 30  1  0  0  0
 17 18  1  0  0  0
 19 20  1  0  0  0
 19 24  1  0  0  0
 20 21  1  0  0  0
 20 31  1  0  0  0
 20 32  1  0  0  0
 21 22  1  0  0  0
 21 33  1  0  0  0
 21 34  1  0  0  0
 22 23  1  0  0  0
 22 35  1  0  0  0
 22 36  1  0  0  0
 23 24  1  0  0  0
 23 37  1  0  0  0
 23 38  1  0  0  0
 24 39  1  0  0  0
 24 40  1  0  0  0
M  END
> <energy>
37.1156

> <i_ionizer_Ion_state_n>
0

> <i_ionizer_Tot_Q>
0

> <s_ionizer_Ion_centers>


> <s_ionizer_Ion_types>


> <s_ionizer_Ion_ctrs_in>


> <r_ionizer_Ionization_penalty>
0.00741239

> <r_ionizer_Ionization_penalty_charging>
0

> <r_ionizer_Ionization_penalty_neutral>
0.00741239

$$$$
ZINC001211869494
                    3D
 Schrodinger Suite 2019-4.
 40 42  0  0  1  0            999 V2000
    2.8568   -1.6532   -1.9945 O   0  0  0  0  0  0
    2.3341   -1.3403   -0.9270 C   0  0  0  0  0  0
    1.1143   -2.0543   -0.5406 C   0  0  0  0  0  0
   -0.0651   -1.6699   -1.1862 C   0  0  0  0  0  0
   -1.2868   -2.2099   -0.7786 C   0  0  0  0  0  0
   -2.4852   -1.7388   -1.3613 N   0  0  0  0  0  0
   -3.0031   -0.5597   -0.9133 C   0  0  0  0  0  0
   -2.8779   -0.0705    0.3004 N   0  0  0  0  0  0
   -3.5138    1.1688    0.4157 C   0  0  0  0  0  0
   -3.4949    1.9310    1.7078 C   0  0  0  0  0  0
   -2.6157    2.9688    1.6618 F   0  0  0  0  0  0
   -3.1552    1.1730    2.7808 F   0  0  0  0  0  0
   -4.7141    2.4679    1.9837 F   0  0  0  0  0  0
   -4.1070    1.5984   -0.7557 C   0  0  0  0  0  0
   -3.8804    0.4528   -2.0017 S   0  0  0  0  0  0
   -1.3115   -3.1480    0.2593 C   0  0  0  0  0  0
   -0.1190   -3.5749    0.8569 C   0  0  0  0  0  0
    1.0951   -3.0260    0.4503 C   0  0  0  0  0  0
    2.2224   -3.4064    1.0702 F   0  0  0  0  0  0
    2.7070   -0.2380   -0.1618 N   0  0  0  0  0  0
    2.1162    0.1319    1.1228 C   0  0  0  0  0  0
    1.0950    1.2505    0.9317 C   0  0  0  0  0  0
    1.4765    2.2090   -0.2055 C   0  0  0  0  0  0
    2.9757    2.2048   -0.5110 C   0  0  0  0  0  0
    3.5241    0.7950   -0.7924 C   0  0  0  0  0  0
   -0.0250   -0.9091   -1.9617 H   0  0  0  0  0  0
   -2.4076   -1.7500   -2.3770 H   0  0  0  0  0  0
   -4.6542    2.5162   -0.9331 H   0  0  0  0  0  0
   -2.2616   -3.5503    0.6039 H   0  0  0  0  0  0
   -0.1354   -4.3118    1.6564 H   0  0  0  0  0  0
    2.9350    0.4687    1.7680 H   0  0  0  0  0  0
    1.6593   -0.7209    1.6290 H   0  0  0  0  0  0
    0.1094    0.8233    0.7104 H   0  0  0  0  0  0
    0.9926    1.8019    1.8770 H   0  0  0  0  0  0
    1.1429    3.2246    0.0343 H   0  0  0  0  0  0
    0.9319    1.9136   -1.1126 H   0  0  0  0  0  0
    3.5115    2.6367    0.3440 H   0  0  0  0  0  0
    3.1879    2.8587   -1.3660 H   0  0  0  0  0  0
    4.5456    0.7052   -0.4072 H   0  0  0  0  0  0
    3.5800    0.6312   -1.8773 H   0  0  0  0  0  0
  1  2  2  0  0  0
  2  3  1  0  0  0
  2 20  1  0  0  0
  3  4  2  0  0  0
  3 18  1  0  0  0
  4  5  1  0  0  0
  4 26  1  0  0  0
  5  6  1  0  0  0
  5 16  2  0  0  0
  6  7  1  0  0  0
  6 27  1  0  0  0
  7  8  2  0  0  0
  7 15  1  0  0  0
  8  9  1  0  0  0
  9 10  1  0  0  0
  9 14  2  0  0  0
 10 11  1  0  0  0
 10 12  1  0  0  0
 10 13  1  0  0  0
 14 15  1  0  0  0
 14 28  1  0  0  0
 16 17  1  0  0  0
 16 29  1  0  0  0
 17 18  2  0  0  0
 17 30  1  0  0  0
 18 19  1  0  0  0
 20 21  1  0  0  0
 20 25  1  0  0  0
 21 22  1  0  0  0
 21 31  1  0  0  0
 21 32  1  0  0  0
 22 23  1  0  0  0
 22 33  1  0  0  0
 22 34  1  0  0  0
 23 24  1  0  0  0
 23 35  1  0  0  0
 23 36  1  0  0  0
 24 25  1  0  0  0
 24 37  1  0  0  0
 24 38  1  0  0  0
 25 39  1  0  0  0
 25 40  1  0  0  0
M  END
> <energy>
56.2208

> <i_ionizer_Ion_state_n>
0

> <i_ionizer_Tot_Q>
0

> <s_ionizer_Ion_centers>


> <s_ionizer_Ion_types>


> <s_ionizer_Ion_ctrs_in>


> <r_ionizer_Ionization_penalty>
0

> <r_ionizer_Ionization_penalty_charging>
0

> <r_ionizer_Ionization_penalty_neutral>
0

$$$$
ZINC001211869495
                    3D
 Schrodinger Suite 2019-4.
 40 42  0  0  1  0            999 V2000
    1.0298    0.0845   -2.6472 O   0  0  0  0  0  0
    1.1377   -0.5218   -1.5845 C   0  0  0  0  0  0
   -0.0300   -1.2812   -1.1212 C   0  0  0  0  0  0
   -1.0671   -0.5531   -0.5272 C   0  0  0  0  0  0
   -2.1803   -1.2182   -0.0004 C   0  0  0  0  0  0
   -3.2130   -0.5235    0.6818 N   0  0  0  0  0  0
   -3.5075    0.8537    0.4840 C   0  0  0  0  0  0
   -3.8916    1.3015   -0.7822 C   0  0  0  0  0  0
   -4.1248    2.6605   -0.9960 C   0  0  0  0  0  0
   -3.9508    3.5299    0.0677 C   0  0  0  0  0  0
   -4.2152    5.2123   -0.1329 Cl  0  0  0  0  0  0
   -3.5778    3.1580    1.3030 N   0  0  0  0  0  0
   -3.3706    1.8332    1.4760 C   0  0  0  0  0  0
   -2.8787    1.4172    3.0711 Cl  0  0  0  0  0  0
   -2.2282   -2.6180   -0.0860 C   0  0  0  0  0  0
   -1.2132   -3.3344   -0.7335 C   0  0  0  0  0  0
   -0.1106   -2.6613   -1.2489 C   0  0  0  0  0  0
    0.8707   -3.3612   -1.8313 F   0  0  0  0  0  0
    2.2266   -0.4271   -0.7198 N   0  0  0  0  0  0
    3.2622    0.5640   -0.9830 C   0  0  0  0  0  0
    3.5414    1.3832    0.2771 C   0  0  0  0  0  0
    3.8343    0.5159    1.5044 C   0  0  0  0  0  0
    3.6860   -0.9805    1.2362 C   0  0  0  0  0  0
    2.4225   -1.3036    0.4409 C   0  0  0  0  0  0
   -0.9706    0.5281   -0.4667 H   0  0  0  0  0  0
   -3.1596   -0.7361    1.6822 H   0  0  0  0  0  0
   -4.0194    0.5973   -1.6013 H   0  0  0  0  0  0
   -4.4340    3.0193   -1.9710 H   0  0  0  0  0  0
   -3.0812   -3.1553    0.3262 H   0  0  0  0  0  0
   -1.2734   -4.4149   -0.8242 H   0  0  0  0  0  0
    4.1594    0.0293   -1.3029 H   0  0  0  0  0  0
    2.9785    1.2310   -1.8037 H   0  0  0  0  0  0
    4.3832    2.0641    0.0970 H   0  0  0  0  0  0
    2.6695    2.0116    0.4974 H   0  0  0  0  0  0
    3.1749    0.8072    2.3314 H   0  0  0  0  0  0
    4.8513    0.7166    1.8556 H   0  0  0  0  0  0
    3.6791   -1.5365    2.1822 H   0  0  0  0  0  0
    4.5719   -1.3299    0.6861 H   0  0  0  0  0  0
    2.4775   -2.3384    0.0771 H   0  0  0  0  0  0
    1.5413   -1.2233    1.0865 H   0  0  0  0  0  0
  1  2  2  0  0  0
  2  3  1  0  0  0
  2 19  1  0  0  0
  3  4  2  0  0  0
  3 17  1  0  0  0
  4  5  1  0  0  0
  4 25  1  0  0  0
  5  6  1  0  0  0
  5 15  2  0  0  0
  6  7  1  0  0  0
  6 26  1  0  0  0
  7  8  2  0  0  0
  7 13  1  0  0  0
  8  9  1  0  0  0
  8 27  1  0  0  0
  9 10  2  0  0  0
  9 28  1  0  0  0
 10 11  1  0  0  0
 10 12  1  0  0  0
 12 13  2  0  0  0
 13 14  1  0  0  0
 15 16  1  0  0  0
 15 29  1  0  0  0
 16 17  2  0  0  0
 16 30  1  0  0  0
 17 18  1  0  0  0
 19 20  1  0  0  0
 19 24  1  0  0  0
 20 21  1  0  0  0
 20 31  1  0  0  0
 20 32  1  0  0  0
 21 22  1  0  0  0
 21 33  1  0  0  0
 21 34  1  0  0  0
 22 23  1  0  0  0
 22 35  1  0  0  0
 22 36  1  0  0  0
 23 24  1  0  0  0
 23 37  1  0  0  0
 23 38  1  0  0  0
 24 39  1  0  0  0
 24 40  1  0  0  0
M  END
> <energy>
48.8744

> <i_ionizer_Ion_state_n>
0

> <i_ionizer_Tot_Q>
0

> <s_ionizer_Ion_centers>


> <s_ionizer_Ion_types>


> <s_ionizer_Ion_ctrs_in>


> <r_ionizer_Ionization_penalty>
0.00741239

> <r_ionizer_Ionization_penalty_charging>
0

> <r_ionizer_Ionization_penalty_neutral>
0.00741239

$$$$
ZINC001211869499
                    3D
 Schrodinger Suite 2019-4.
 44 46  0  0  1  0            999 V2000
   -4.0358   -0.2981    2.6770 C   0  0  0  0  0  0
   -4.7726    0.1179    1.4152 C   0  0  0  0  0  0
   -3.8939    0.1825    0.1607 C   0  0  0  0  0  0
   -2.9003    1.3478    0.1185 C   0  0  0  0  0  0
   -1.8901    1.1510    1.1239 O   0  0  0  0  0  0
   -0.5859    1.5236    1.0788 C   0  0  0  0  0  0
    0.1321    1.3486    2.0555 O   0  0  0  0  0  0
   -0.1228    2.0446   -0.1050 N   0  0  0  0  0  0
    1.3154    2.0976   -0.3749 C   0  0  2  0  0  0
    1.8612    0.6993   -0.3664 C   0  0  0  0  0  0
    1.4375   -0.3520   -1.0365 N   0  0  0  0  0  0
    2.2586   -1.3621   -0.5664 C   0  0  0  0  0  0
    2.0902   -2.7420   -1.0265 C   0  0  0  0  0  0
    0.8667   -3.0730   -1.6575 C   0  0  0  0  0  0
    0.6137   -4.3580   -2.1443 C   0  0  0  0  0  0
    1.5820   -5.3434   -2.0077 C   0  0  0  0  0  0
    2.7893   -5.0358   -1.3857 C   0  0  0  0  0  0
    3.7023   -6.0134   -1.2730 F   0  0  0  0  0  0
    3.0601   -3.7514   -0.8934 C   0  0  0  0  0  0
    4.6170   -3.5092   -0.1739 Cl  0  0  0  0  0  0
    3.1573   -0.9383    0.3335 N   0  0  0  0  0  0
    2.8996    0.4215    0.4665 O   0  0  0  0  0  0
    2.0064    3.1290    0.4883 C   0  0  0  0  0  0
    3.2462    3.8400   -0.0063 C   0  0  0  0  0  0
    1.9566    4.6003    0.1416 C   0  0  0  0  0  0
   -3.4736   -1.2225    2.5178 H   0  0  0  0  0  0
   -3.3461    0.4778    3.0175 H   0  0  0  0  0  0
   -4.7485   -0.4750    3.4881 H   0  0  0  0  0  0
   -5.2698    1.0804    1.5784 H   0  0  0  0  0  0
   -5.5686   -0.6161    1.2349 H   0  0  0  0  0  0
   -3.3516   -0.7653    0.0550 H   0  0  0  0  0  0
   -4.5601    0.2707   -0.7072 H   0  0  0  0  0  0
   -3.4115    2.2953    0.3199 H   0  0  0  0  0  0
   -2.4763    1.3796   -0.8857 H   0  0  0  0  0  0
   -0.6875    1.9013   -0.9225 H   0  0  0  0  0  0
    1.3842    2.4389   -1.4177 H   0  0  0  0  0  0
    0.0876   -2.3175   -1.7683 H   0  0  0  0  0  0
   -0.3361   -4.5863   -2.6242 H   0  0  0  0  0  0
    1.4123   -6.3499   -2.3780 H   0  0  0  0  0  0
    1.9894    2.8674    1.5422 H   0  0  0  0  0  0
    4.0357    4.0353    0.7132 H   0  0  0  0  0  0
    3.6107    3.6388   -1.0078 H   0  0  0  0  0  0
    1.8804    5.3085    0.9611 H   0  0  0  0  0  0
    1.4385    4.9116   -0.7585 H   0  0  0  0  0  0
  1  2  1  0  0  0
  1 26  1  0  0  0
  1 27  1  0  0  0
  1 28  1  0  0  0
  2  3  1  0  0  0
  2 29  1  0  0  0
  2 30  1  0  0  0
  3  4  1  0  0  0
  3 31  1  0  0  0
  3 32  1  0  0  0
  4  5  1  0  0  0
  4 33  1  0  0  0
  4 34  1  0  0  0
  5  6  1  0  0  0
  6  7  2  0  0  0
  6  8  1  0  0  0
  8  9  1  0  0  0
  8 35  1  0  0  0
  9 10  1  0  0  0
  9 23  1  0  0  0
  9 36  1  0  0  0
 10 11  2  0  0  0
 10 22  1  0  0  0
 11 12  1  0  0  0
 12 13  1  0  0  0
 12 21  2  0  0  0
 13 14  2  0  0  0
 13 19  1  0  0  0
 14 15  1  0  0  0
 14 37  1  0  0  0
 15 16  2  0  0  0
 15 38  1  0  0  0
 16 17  1  0  0  0
 16 39  1  0  0  0
 17 18  1  0  0  0
 17 19  2  0  0  0
 19 20  1  0  0  0
 21 22  1  0  0  0
 23 24  1  0  0  0
 23 25  1  0  0  0
 23 40  1  0  0  0
 24 25  1  0  0  0
 24 41  1  0  0  0
 24 42  1  0  0  0
 25 43  1  0  0  0
 25 44  1  0  0  0
M  END
> <energy>
19.0965

> <i_ionizer_Ion_state_n>
0

> <i_ionizer_Tot_Q>
0

> <s_ionizer_Ion_centers>


> <s_ionizer_Ion_types>


> <s_ionizer_Ion_ctrs_in>


> <r_ionizer_Ionization_penalty>
0

> <r_ionizer_Ionization_penalty_charging>
0

> <r_ionizer_Ionization_penalty_neutral>
0

$$$$
ZINC001211869500
                    3D
 Schrodinger Suite 2019-4.
 44 46  0  0  1  0            999 V2000
   -5.6369   -0.8785   -0.8898 C   0  0  0  0  0  0
   -4.9680   -0.0462    0.1929 C   0  0  0  0  0  0
   -3.7150    0.6536   -0.3211 C   0  0  0  0  0  0
   -3.0378    1.5045    0.7515 C   0  0  0  0  0  0
   -2.0016    2.2327    0.0739 O   0  0  0  0  0  0
   -0.8308    2.3909    0.7275 C   0  0  0  0  0  0
   -0.6428    2.2094    1.9198 O   0  0  0  0  0  0
    0.1143    2.7015   -0.2007 N   0  0  0  0  0  0
    1.5083    2.3713    0.0194 C   0  0  1  0  0  0
    1.6850    0.8866   -0.1600 C   0  0  0  0  0  0
    2.1230   -0.0297    0.6810 N   0  0  0  0  0  0
    1.8944   -1.2051   -0.0011 C   0  0  0  0  0  0
    2.1239   -2.5152    0.5910 C   0  0  0  0  0  0
    2.7803   -3.5155   -0.1603 C   0  0  0  0  0  0
    3.0302   -4.7803    0.3849 C   0  0  0  0  0  0
    2.6264   -5.0645    1.6829 C   0  0  0  0  0  0
    1.9579   -4.0947    2.4230 C   0  0  0  0  0  0
    1.5557   -4.4086    3.6624 F   0  0  0  0  0  0
    1.6939   -2.8246    1.8933 C   0  0  0  0  0  0
    0.7731   -1.7272    2.8679 Cl  0  0  0  0  0  0
    1.4433   -1.0317   -1.2540 N   0  0  0  0  0  0
    1.2696    0.3511   -1.3456 O   0  0  0  0  0  0
    2.3096    3.3035   -0.8714 C   0  0  0  0  0  0
    3.7352    2.9889   -1.2691 C   0  0  0  0  0  0
    2.6504    3.0173   -2.3167 C   0  0  0  0  0  0
   -5.0011   -1.7195   -1.1837 H   0  0  0  0  0  0
   -5.8453   -0.2732   -1.7767 H   0  0  0  0  0  0
   -6.5913   -1.2849   -0.5268 H   0  0  0  0  0  0
   -5.6802    0.6998    0.5581 H   0  0  0  0  0  0
   -4.7137   -0.6950    1.0390 H   0  0  0  0  0  0
   -2.9968   -0.0864   -0.7009 H   0  0  0  0  0  0
   -3.9698    1.2908   -1.1773 H   0  0  0  0  0  0
   -3.7498    2.2182    1.1782 H   0  0  0  0  0  0
   -2.6330    0.8622    1.5433 H   0  0  0  0  0  0
   -0.2303    2.6633   -1.1510 H   0  0  0  0  0  0
    1.7578    2.6181    1.0599 H   0  0  0  0  0  0
    3.1026   -3.3137   -1.1823 H   0  0  0  0  0  0
    3.5381   -5.5419   -0.2006 H   0  0  0  0  0  0
    2.8146   -6.0387    2.1293 H   0  0  0  0  0  0
    2.0985    4.3466   -0.6308 H   0  0  0  0  0  0
    4.4492    3.8066   -1.2545 H   0  0  0  0  0  0
    4.1623    2.0277   -1.0008 H   0  0  0  0  0  0
    2.3811    2.0805   -2.7905 H   0  0  0  0  0  0
    2.6657    3.8503   -3.0134 H   0  0  0  0  0  0
  1  2  1  0  0  0
  1 26  1  0  0  0
  1 27  1  0  0  0
  1 28  1  0  0  0
  2  3  1  0  0  0
  2 29  1  0  0  0
  2 30  1  0  0  0
  3  4  1  0  0  0
  3 31  1  0  0  0
  3 32  1  0  0  0
  4  5  1  0  0  0
  4 33  1  0  0  0
  4 34  1  0  0  0
  5  6  1  0  0  0
  6  7  2  0  0  0
  6  8  1  0  0  0
  8  9  1  0  0  0
  8 35  1  0  0  0
  9 10  1  0  0  0
  9 23  1  0  0  0
  9 36  1  0  0  0
 10 11  2  0  0  0
 10 22  1  0  0  0
 11 12  1  0  0  0
 12 13  1  0  0  0
 12 21  2  0  0  0
 13 14  2  0  0  0
 13 19  1  0  0  0
 14 15  1  0  0  0
 14 37  1  0  0  0
 15 16  2  0  0  0
 15 38  1  0  0  0
 16 17  1  0  0  0
 16 39  1  0  0  0
 17 18  1  0  0  0
 17 19  2  0  0  0
 19 20  1  0  0  0
 21 22  1  0  0  0
 23 24  1  0  0  0
 23 25  1  0  0  0
 23 40  1  0  0  0
 24 25  1  0  0  0
 24 41  1  0  0  0
 24 42  1  0  0  0
 25 43  1  0  0  0
 25 44  1  0  0  0
M  END
> <energy>
4.47663

> <i_ionizer_Ion_state_n>
0

> <i_ionizer_Tot_Q>
0

> <s_ionizer_Ion_centers>


> <s_ionizer_Ion_types>


> <s_ionizer_Ion_ctrs_in>


> <r_ionizer_Ionization_penalty>
0

> <r_ionizer_Ionization_penalty_charging>
0

> <r_ionizer_Ionization_penalty_neutral>
0

$$$$
ZINC001211869513
                    3D
 Schrodinger Suite 2019-4.
 53 56  0  0  1  0            999 V2000
    3.6163   -2.7096   -1.0412 C   0  0  0  0  0  0
    5.1270   -2.5411   -0.8826 C   0  0  0  0  0  0
    5.4749   -1.1245   -0.4068 C   0  0  0  0  0  0
    5.3581   -0.1951   -1.4975 O   0  0  0  0  0  0
    4.3213    0.6801   -1.2936 C   0  0  0  0  0  0
    3.2576    0.6454   -2.1891 C   0  0  0  0  0  0
    2.0827    1.3235   -1.8623 C   0  0  0  0  0  0
    2.0005    2.0428   -0.6596 C   0  0  0  0  0  0
    0.6987    2.3826   -0.1136 C   0  0  0  0  0  0
   -0.1638    3.2703   -0.6244 N   0  0  0  0  0  0
   -1.3414    3.0165    0.0968 O   0  0  0  0  0  0
   -1.0583    1.9953    0.9602 C   0  0  0  0  0  0
   -2.1762    1.3979    1.7769 C   0  0  2  0  0  0
   -4.4399    1.6025    2.6178 C   0  0  0  0  0  0
   -4.7093    0.1037    2.4809 C   0  0  0  0  0  0
   -3.4283   -0.7316    2.4136 C   0  0  0  0  0  0
   -2.3160   -0.1352    1.5113 C   0  0  1  0  0  0
   -2.4360   -0.5582    0.0407 C   0  0  0  0  0  0
   -1.3058   -1.0918   -0.6128 C   0  0  0  0  0  0
   -1.3597   -1.5197   -1.9439 C   0  0  0  0  0  0
   -2.5506   -1.4386   -2.6536 C   0  0  0  0  0  0
   -3.6764   -0.8930   -2.0394 C   0  0  0  0  0  0
   -3.6175   -0.4555   -0.7092 C   0  0  0  0  0  0
    0.2024    1.6128    0.9149 N   0  0  0  0  0  0
    3.1343    2.2009    0.1433 C   0  0  0  0  0  0
    4.3053    1.5269   -0.1847 C   0  0  0  0  0  0
    3.0614   -2.1219   -0.2983 H   0  0  0  0  0  0
    3.2887   -2.3953   -2.0414 H   0  0  0  0  0  0
    3.3347   -3.7600   -0.8925 H   0  0  0  0  0  0
    5.4773   -3.2724   -0.1427 H   0  0  0  0  0  0
    5.6218   -2.7650   -1.8394 H   0  0  0  0  0  0
    6.5103   -1.0763   -0.0466 H   0  0  0  0  0  0
    4.8312   -0.8770    0.4488 H   0  0  0  0  0  0
    3.2963    0.0105   -3.0744 H   0  0  0  0  0  0
    1.2080    1.2038   -2.4975 H   0  0  0  0  0  0
   -1.8562    1.5259    2.8189 H   0  0  0  0  0  0
   -5.3774    2.1515    2.4660 H   0  0  0  0  0  0
   -4.1007    1.8178    3.6426 H   0  0  0  0  0  0
   -5.3415   -0.0878    1.6087 H   0  0  0  0  0  0
   -5.3051   -0.2219    3.3425 H   0  0  0  0  0  0
   -3.0353   -0.7888    3.4345 H   0  0  0  0  0  0
   -3.6544   -1.7625    2.1136 H   0  0  0  0  0  0
   -1.3803   -0.5927    1.8754 H   0  0  0  0  0  0
   -0.3649   -1.1889   -0.0726 H   0  0  0  0  0  0
   -0.4680   -1.9230   -2.4193 H   0  0  0  0  0  0
   -2.6037   -1.8005   -3.6777 H   0  0  0  0  0  0
   -4.6036   -0.8142   -2.6008 H   0  0  0  0  0  0
   -4.5299   -0.0571   -0.2855 H   0  0  0  0  0  0
    3.0865    2.7460    1.0805 H   0  0  0  0  0  0
    5.1723    1.5875    0.4671 H   0  0  0  0  0  0
   -3.4687    2.1111    1.6412 N   0  3  0  0  0  0
   -3.3201    3.1141    1.8030 H   0  0  0  0  0  0
   -3.8360    1.9680    0.6931 H   0  0  0  0  0  0
  1  2  1  0  0  0
  1 27  1  0  0  0
  1 28  1  0  0  0
  1 29  1  0  0  0
  2  3  1  0  0  0
  2 30  1  0  0  0
  2 31  1  0  0  0
  3  4  1  0  0  0
  3 32  1  0  0  0
  3 33  1  0  0  0
  4  5  1  0  0  0
  5  6  2  0  0  0
  5 26  1  0  0  0
  6  7  1  0  0  0
  6 34  1  0  0  0
  7  8  2  0  0  0
  7 35  1  0  0  0
  8  9  1  0  0  0
  8 25  1  0  0  0
  9 10  2  0  0  0
  9 24  1  0  0  0
 10 11  1  0  0  0
 11 12  1  0  0  0
 12 13  1  0  0  0
 12 24  2  0  0  0
 13 17  1  0  0  0
 13 36  1  0  0  0
 13 51  1  0  0  0
 14 15  1  0  0  0
 14 37  1  0  0  0
 14 38  1  0  0  0
 14 51  1  0  0  0
 15 16  1  0  0  0
 15 39  1  0  0  0
 15 40  1  0  0  0
 16 17  1  0  0  0
 16 41  1  0  0  0
 16 42  1  0  0  0
 17 18  1  0  0  0
 17 43  1  0  0  0
 18 19  2  0  0  0
 18 23  1  0  0  0
 19 20  1  0  0  0
 19 44  1  0  0  0
 20 21  2  0  0  0
 20 45  1  0  0  0
 21 22  1  0  0  0
 21 46  1  0  0  0
 22 23  2  0  0  0
 22 47  1  0  0  0
 23 48  1  0  0  0
 25 26  2  0  0  0
 25 49  1  0  0  0
 26 50  1  0  0  0
 51 52  1  0  0  0
 51 53  1  0  0  0
M  CHG  1  51   1
M  END
> <energy>
112.405

> <i_ionizer_Ion_state_n>
1

> <i_ionizer_Tot_Q>
1

> <s_ionizer_Ion_centers>
51

> <s_ionizer_Ion_types>
N5

> <s_ionizer_Ion_ctrs_in>
14

> <r_ionizer_Ionization_penalty>
0.000148807

> <r_ionizer_Ionization_penalty_charging>
0.000148807

> <r_ionizer_Ionization_penalty_neutral>
0

$$$$
ZINC001211869514
                    3D
 Schrodinger Suite 2019-4.
 53 56  0  0  1  0            999 V2000
    2.9616   -4.1505   -1.5398 C   0  0  0  0  0  0
    4.4222   -3.7096   -1.6163 C   0  0  0  0  0  0
    4.5826   -2.1879   -1.6672 C   0  0  0  0  0  0
    5.0620   -1.7154   -0.3927 O   0  0  0  0  0  0
    4.2717   -0.6931    0.0557 C   0  0  0  0  0  0
    3.3409   -0.9811    1.0490 C   0  0  0  0  0  0
    2.3833   -0.0222    1.3744 C   0  0  0  0  0  0
    2.3738    1.2340    0.7371 C   0  0  0  0  0  0
    1.2087    2.1008    0.8767 C   0  0  0  0  0  0
    1.1170    3.3719    0.4526 N   0  0  0  0  0  0
   -0.2600    3.6370    0.5031 O   0  0  0  0  0  0
   -0.8609    2.4896    0.9446 C   0  0  0  0  0  0
   -2.3699    2.3716    0.8673 C   0  0  2  0  0  0
   -3.1753    3.6893   -1.0401 C   0  0  0  0  0  0
   -4.0180    2.5540   -1.6329 C   0  0  0  0  0  0
   -4.0695    1.3196   -0.7299 C   0  0  0  0  0  0
   -2.7177    1.1277   -0.0242 C   0  0  2  0  0  0
   -2.6655   -0.1806    0.7535 C   0  0  0  0  0  0
   -1.6280   -1.0994    0.5234 C   0  0  0  0  0  0
   -1.5303   -2.2684    1.2832 C   0  0  0  0  0  0
   -2.4726   -2.5406    2.2708 C   0  0  0  0  0  0
   -3.5253   -1.6544    2.4873 C   0  0  0  0  0  0
   -3.6148   -0.4787    1.7392 C   0  0  0  0  0  0
    0.0053    1.5668    1.2780 N   0  0  0  0  0  0
    3.4152    1.5488   -0.1533 C   0  0  0  0  0  0
    4.3611    0.5805   -0.5021 C   0  0  0  0  0  0
    2.9030   -5.2291   -1.3552 H   0  0  0  0  0  0
    2.4187   -3.6339   -0.7406 H   0  0  0  0  0  0
    2.4529   -3.9542   -2.4905 H   0  0  0  0  0  0
    4.9619   -4.1207   -0.7580 H   0  0  0  0  0  0
    4.8466   -4.1442   -2.5299 H   0  0  0  0  0  0
    5.3413   -1.9139   -2.4090 H   0  0  0  0  0  0
    3.6365   -1.7157   -1.9699 H   0  0  0  0  0  0
    3.3184   -1.9633    1.5072 H   0  0  0  0  0  0
    1.6013   -0.2828    2.0853 H   0  0  0  0  0  0
   -2.7177    2.2019    1.8902 H   0  0  0  0  0  0
   -3.6375    4.6470   -1.3124 H   0  0  0  0  0  0
   -2.1754    3.6906   -1.4887 H   0  0  0  0  0  0
   -3.5928    2.2676   -2.6037 H   0  0  0  0  0  0
   -5.0410    2.8897   -1.8408 H   0  0  0  0  0  0
   -4.8733    1.4561    0.0045 H   0  0  0  0  0  0
   -4.3226    0.4319   -1.3207 H   0  0  0  0  0  0
   -1.9663    1.0670   -0.8283 H   0  0  0  0  0  0
   -0.8665   -0.9065   -0.2318 H   0  0  0  0  0  0
   -0.7081   -2.9604    1.1154 H   0  0  0  0  0  0
   -2.3914   -3.4379    2.8745 H   0  0  0  0  0  0
   -4.2719   -1.8654    3.2480 H   0  0  0  0  0  0
   -4.4310    0.2125    1.9422 H   0  0  0  0  0  0
    3.4550    2.5205   -0.6340 H   0  0  0  0  0  0
    5.1223    0.8002   -1.2452 H   0  0  0  0  0  0
   -3.0784    3.6217    0.4271 N   0  3  0  0  0  0
   -4.0246    3.6287    0.8259 H   0  0  0  0  0  0
   -2.5579    4.4391    0.7664 H   0  0  0  0  0  0
  1  2  1  0  0  0
  1 27  1  0  0  0
  1 28  1  0  0  0
  1 29  1  0  0  0
  2  3  1  0  0  0
  2 30  1  0  0  0
  2 31  1  0  0  0
  3  4  1  0  0  0
  3 32  1  0  0  0
  3 33  1  0  0  0
  4  5  1  0  0  0
  5  6  2  0  0  0
  5 26  1  0  0  0
  6  7  1  0  0  0
  6 34  1  0  0  0
  7  8  2  0  0  0
  7 35  1  0  0  0
  8  9  1  0  0  0
  8 25  1  0  0  0
  9 10  2  0  0  0
  9 24  1  0  0  0
 10 11  1  0  0  0
 11 12  1  0  0  0
 12 13  1  0  0  0
 12 24  2  0  0  0
 13 17  1  0  0  0
 13 36  1  0  0  0
 13 51  1  0  0  0
 14 15  1  0  0  0
 14 37  1  0  0  0
 14 38  1  0  0  0
 14 51  1  0  0  0
 15 16  1  0  0  0
 15 39  1  0  0  0
 15 40  1  0  0  0
 16 17  1  0  0  0
 16 41  1  0  0  0
 16 42  1  0  0  0
 17 18  1  0  0  0
 17 43  1  0  0  0
 18 19  2  0  0  0
 18 23  1  0  0  0
 19 20  1  0  0  0
 19 44  1  0  0  0
 20 21  2  0  0  0
 20 45  1  0  0  0
 21 22  1  0  0  0
 21 46  1  0  0  0
 22 23  2  0  0  0
 22 47  1  0  0  0
 23 48  1  0  0  0
 25 26  2  0  0  0
 25 49  1  0  0  0
 26 50  1  0  0  0
 51 52  1  0  0  0
 51 53  1  0  0  0
M  CHG  1  51   1
M  END
> <energy>
109.86

> <i_ionizer_Ion_state_n>
1

> <i_ionizer_Tot_Q>
1

> <s_ionizer_Ion_centers>
51

> <s_ionizer_Ion_types>
N5

> <s_ionizer_Ion_ctrs_in>
14

> <r_ionizer_Ionization_penalty>
0.000148807

> <r_ionizer_Ionization_penalty_charging>
0.000148807

> <r_ionizer_Ionization_penalty_neutral>
0

$$$$
ZINC001211869515
                    3D
 Schrodinger Suite 2019-4.
 53 56  0  0  1  0            999 V2000
    5.2388   -0.9114    2.0402 C   0  0  0  0  0  0
    6.1487   -0.8106    0.8157 C   0  0  0  0  0  0
    5.5240    0.0145   -0.3109 C   0  0  0  0  0  0
    5.3218    1.3661    0.1325 O   0  0  0  0  0  0
    4.0150    1.7458    0.0049 C   0  0  0  0  0  0
    3.3914    1.7564   -1.2388 C   0  0  0  0  0  0
    2.0330    2.0297   -1.3158 C   0  0  0  0  0  0
    1.2899    2.2820   -0.1546 C   0  0  0  0  0  0
   -0.1549    2.2715   -0.2464 C   0  0  0  0  0  0
   -0.9821    2.9168    0.5893 N   0  0  0  0  0  0
   -2.2410    2.4182    0.2419 O   0  0  0  0  0  0
   -2.0310    1.4850   -0.7312 C   0  0  0  0  0  0
   -3.1742    0.5988   -1.1214 C   0  0  1  0  0  0
   -5.4760    0.5942   -1.8881 C   0  0  0  0  0  0
   -5.8854   -0.4318   -0.8360 C   0  0  0  0  0  0
   -4.7058   -1.3058   -0.4291 C   0  0  0  0  0  0
   -3.4712   -0.4678   -0.0192 C   0  0  1  0  0  0
   -2.2642   -1.3511    0.3061 C   0  0  0  0  0  0
   -1.8366   -2.3963   -0.5288 C   0  0  0  0  0  0
   -0.6672   -3.1131   -0.2547 C   0  0  0  0  0  0
    0.0997   -2.7915    0.8623 C   0  0  0  0  0  0
   -0.3224   -1.7757    1.7188 C   0  0  0  0  0  0
   -1.4915   -1.0652    1.4467 C   0  0  0  0  0  0
   -0.7815    1.4324   -1.1360 N   0  0  0  0  0  0
    1.9525    2.3887    1.0787 C   0  0  0  0  0  0
    3.3193    2.1258    1.1583 C   0  0  0  0  0  0
    5.7077   -1.5596    2.7901 H   0  0  0  0  0  0
    4.2639   -1.3514    1.7765 H   0  0  0  0  0  0
    5.0629    0.0695    2.5046 H   0  0  0  0  0  0
    6.3607   -1.8198    0.4340 H   0  0  0  0  0  0
    7.1007   -0.3645    1.1261 H   0  0  0  0  0  0
    6.2106    0.0449   -1.1649 H   0  0  0  0  0  0
    4.6036   -0.4765   -0.6548 H   0  0  0  0  0  0
    3.9429    1.5271   -2.1454 H   0  0  0  0  0  0
    1.5275    1.9877   -2.2776 H   0  0  0  0  0  0
   -2.8664    0.0754   -2.0382 H   0  0  0  0  0  0
   -6.3321    1.2430   -2.1208 H   0  0  0  0  0  0
   -5.2025    0.0978   -2.8283 H   0  0  0  0  0  0
   -6.6988   -1.0595   -1.2216 H   0  0  0  0  0  0
   -6.2827    0.0856    0.0442 H   0  0  0  0  0  0
   -5.0045   -1.9711    0.3874 H   0  0  0  0  0  0
   -4.4574   -1.9532   -1.2751 H   0  0  0  0  0  0
   -3.7530    0.0625    0.9024 H   0  0  0  0  0  0
   -2.3974   -2.6858   -1.4149 H   0  0  0  0  0  0
   -0.3508   -3.9272   -0.9059 H   0  0  0  0  0  0
    1.0239   -3.3286    1.0633 H   0  0  0  0  0  0
    0.2791   -1.5224    2.5924 H   0  0  0  0  0  0
   -1.7893   -0.2762    2.1362 H   0  0  0  0  0  0
    1.3953    2.6007    1.9933 H   0  0  0  0  0  0
    3.8314    2.1792    2.1153 H   0  0  0  0  0  0
   -4.3683    1.4331   -1.4272 N   0  3  0  0  0  0
   -4.6554    1.9358   -0.5793 H   0  0  0  0  0  0
   -4.1287    2.1096   -2.1616 H   0  0  0  0  0  0
  1  2  1  0  0  0
  1 27  1  0  0  0
  1 28  1  0  0  0
  1 29  1  0  0  0
  2  3  1  0  0  0
  2 30  1  0  0  0
  2 31  1  0  0  0
  3  4  1  0  0  0
  3 32  1  0  0  0
  3 33  1  0  0  0
  4  5  1  0  0  0
  5  6  2  0  0  0
  5 26  1  0  0  0
  6  7  1  0  0  0
  6 34  1  0  0  0
  7  8  2  0  0  0
  7 35  1  0  0  0
  8  9  1  0  0  0
  8 25  1  0  0  0
  9 10  2  0  0  0
  9 24  1  0  0  0
 10 11  1  0  0  0
 11 12  1  0  0  0
 12 13  1  0  0  0
 12 24  2  0  0  0
 13 17  1  0  0  0
 13 36  1  0  0  0
 13 51  1  0  0  0
 14 15  1  0  0  0
 14 37  1  0  0  0
 14 38  1  0  0  0
 14 51  1  0  0  0
 15 16  1  0  0  0
 15 39  1  0  0  0
 15 40  1  0  0  0
 16 17  1  0  0  0
 16 41  1  0  0  0
 16 42  1  0  0  0
 17 18  1  0  0  0
 17 43  1  0  0  0
 18 19  2  0  0  0
 18 23  1  0  0  0
 19 20  1  0  0  0
 19 44  1  0  0  0
 20 21  2  0  0  0
 20 45  1  0  0  0
 21 22  1  0  0  0
 21 46  1  0  0  0
 22 23  2  0  0  0
 22 47  1  0  0  0
 23 48  1  0  0  0
 25 26  2  0  0  0
 25 49  1  0  0  0
 26 50  1  0  0  0
 51 52  1  0  0  0
 51 53  1  0  0  0
M  CHG  1  51   1
M  END
> <energy>
100.572

> <i_ionizer_Ion_state_n>
1

> <i_ionizer_Tot_Q>
1

> <s_ionizer_Ion_centers>
51

> <s_ionizer_Ion_types>
N5

> <s_ionizer_Ion_ctrs_in>
14

> <r_ionizer_Ionization_penalty>
0.000148807

> <r_ionizer_Ionization_penalty_charging>
0.000148807

> <r_ionizer_Ionization_penalty_neutral>
0

$$$$
ZINC001211869516
                    3D
 Schrodinger Suite 2019-4.
 53 56  0  0  1  0            999 V2000
    5.0991    1.8102    1.7467 C   0  0  0  0  0  0
    4.3644    0.6182    2.3377 C   0  0  0  0  0  0
    5.2526   -0.6348    2.3397 C   0  0  0  0  0  0
    4.6304   -1.7759    2.9706 O   0  0  0  0  0  0
    3.5571   -2.2128    2.2410 C   0  0  0  0  0  0
    3.7062   -2.7180    0.9473 C   0  0  0  0  0  0
    2.5840   -2.8639    0.1389 C   0  0  0  0  0  0
    1.3249   -2.4954    0.6356 C   0  0  0  0  0  0
    0.2687   -2.1945   -0.3106 C   0  0  0  0  0  0
   -0.0857   -2.9729   -1.3457 N   0  0  0  0  0  0
   -0.8868   -2.1351   -2.1196 O   0  0  0  0  0  0
   -0.8992   -0.9221   -1.4917 C   0  0  0  0  0  0
   -1.4576    0.2356   -2.2649 C   0  0  1  0  0  0
   -1.0698    2.5943   -2.8700 C   0  0  0  0  0  0
   -2.4570    2.4609   -3.5051 C   0  0  0  0  0  0
   -3.4435    1.8439   -2.5234 C   0  0  0  0  0  0
   -2.9778    0.4461   -2.0317 C   0  0  2  0  0  0
   -3.5192    0.2559   -0.6234 C   0  0  0  0  0  0
   -2.8968    0.8312    0.4886 C   0  0  0  0  0  0
   -3.4458    0.6848    1.7619 C   0  0  0  0  0  0
   -4.6317   -0.0306    1.9357 C   0  0  0  0  0  0
   -5.2693   -0.5967    0.8360 C   0  0  0  0  0  0
   -4.7178   -0.4483   -0.4366 C   0  0  0  0  0  0
   -0.2450   -0.9254   -0.3526 N   0  0  0  0  0  0
    1.1716   -2.1614    1.9888 C   0  0  0  0  0  0
    2.2951   -2.0368    2.8028 C   0  0  0  0  0  0
    4.4630    2.6989    1.7590 H   0  0  0  0  0  0
    6.0018    2.0359    2.3214 H   0  0  0  0  0  0
    5.3898    1.6212    0.7105 H   0  0  0  0  0  0
    4.0570    0.8484    3.3652 H   0  0  0  0  0  0
    3.4390    0.4499    1.7670 H   0  0  0  0  0  0
    6.1545   -0.4283    2.9247 H   0  0  0  0  0  0
    5.5964   -0.8841    1.3288 H   0  0  0  0  0  0
    4.6907   -2.9077    0.5318 H   0  0  0  0  0  0
    2.7031   -3.1460   -0.9066 H   0  0  0  0  0  0
   -1.3091   -0.0125   -3.3260 H   0  0  0  0  0  0
   -1.0429    3.4930   -2.2426 H   0  0  0  0  0  0
   -0.3323    2.7520   -3.6666 H   0  0  0  0  0  0
   -2.4010    1.8387   -4.4076 H   0  0  0  0  0  0
   -2.8202    3.4461   -3.8120 H   0  0  0  0  0  0
   -4.4411    1.7672   -2.9766 H   0  0  0  0  0  0
   -3.5485    2.5364   -1.6770 H   0  0  0  0  0  0
   -3.4664   -0.3047   -2.6667 H   0  0  0  0  0  0
   -1.9763    1.4022    0.3780 H   0  0  0  0  0  0
   -2.9493    1.1314    2.6173 H   0  0  0  0  0  0
   -5.0562   -0.1438    2.9265 H   0  0  0  0  0  0
   -6.1957   -1.1472    0.9635 H   0  0  0  0  0  0
   -5.2418   -0.8831   -1.2861 H   0  0  0  0  0  0
    0.1938   -1.8878    2.3851 H   0  0  0  0  0  0
    2.2036   -1.6869    3.8270 H   0  0  0  0  0  0
   -0.6567    1.4722   -2.0027 N   0  3  0  0  0  0
   -0.7837    1.7476   -1.0218 H   0  0  0  0  0  0
    0.3346    1.2679   -2.1752 H   0  0  0  0  0  0
  1  2  1  0  0  0
  1 27  1  0  0  0
  1 28  1  0  0  0
  1 29  1  0  0  0
  2  3  1  0  0  0
  2 30  1  0  0  0
  2 31  1  0  0  0
  3  4  1  0  0  0
  3 32  1  0  0  0
  3 33  1  0  0  0
  4  5  1  0  0  0
  5  6  2  0  0  0
  5 26  1  0  0  0
  6  7  1  0  0  0
  6 34  1  0  0  0
  7  8  2  0  0  0
  7 35  1  0  0  0
  8  9  1  0  0  0
  8 25  1  0  0  0
  9 10  2  0  0  0
  9 24  1  0  0  0
 10 11  1  0  0  0
 11 12  1  0  0  0
 12 13  1  0  0  0
 12 24  2  0  0  0
 13 17  1  0  0  0
 13 36  1  0  0  0
 13 51  1  0  0  0
 14 15  1  0  0  0
 14 37  1  0  0  0
 14 38  1  0  0  0
 14 51  1  0  0  0
 15 16  1  0  0  0
 15 39  1  0  0  0
 15 40  1  0  0  0
 16 17  1  0  0  0
 16 41  1  0  0  0
 16 42  1  0  0  0
 17 18  1  0  0  0
 17 43  1  0  0  0
 18 19  2  0  0  0
 18 23  1  0  0  0
 19 20  1  0  0  0
 19 44  1  0  0  0
 20 21  2  0  0  0
 20 45  1  0  0  0
 21 22  1  0  0  0
 21 46  1  0  0  0
 22 23  2  0  0  0
 22 47  1  0  0  0
 23 48  1  0  0  0
 25 26  2  0  0  0
 25 49  1  0  0  0
 26 50  1  0  0  0
 51 52  1  0  0  0
 51 53  1  0  0  0
M  CHG  1  51   1
M  END
> <energy>
115.592

> <i_ionizer_Ion_state_n>
1

> <i_ionizer_Tot_Q>
1

> <s_ionizer_Ion_centers>
51

> <s_ionizer_Ion_types>
N5

> <s_ionizer_Ion_ctrs_in>
14

> <r_ionizer_Ionization_penalty>
0.000148807

> <r_ionizer_Ionization_penalty_charging>
0.000148807

> <r_ionizer_Ionization_penalty_neutral>
0

$$$$
ZINC001211869559
                    3D
 Schrodinger Suite 2019-4.
 43 46  0  0  1  0            999 V2000
   -4.0779    1.0454    1.3184 F   0  0  0  0  0  0
   -4.4937    0.2612    0.3101 C   0  0  0  0  0  0
   -5.8543    0.2003    0.0023 C   0  0  0  0  0  0
   -7.0016    1.1137    0.9043 Cl  0  0  0  0  0  0
   -6.2999   -0.6019   -1.0491 C   0  0  0  0  0  0
   -5.3823   -1.3357   -1.8007 C   0  0  0  0  0  0
   -4.0201   -1.2647   -1.4998 C   0  0  0  0  0  0
   -3.5652   -0.4668   -0.4372 C   0  0  0  0  0  0
   -2.1483   -0.4325   -0.1233 C   0  0  0  0  0  0
   -1.6623   -0.5710    1.1184 N   0  0  0  0  0  0
   -0.2830   -0.6028    0.9294 O   0  0  0  0  0  0
   -0.0645   -0.4495   -0.4078 C   0  0  0  0  0  0
    1.3425   -0.5867   -0.9165 C   0  0  1  0  0  0
    3.0011   -2.2436   -1.6165 C   0  0  0  0  0  0
    4.1024   -1.2385   -1.2694 C   0  0  0  0  0  0
    3.7497   -0.3890   -0.0512 C   0  0  0  0  0  0
    2.4189    0.3667   -0.2893 C   0  0  2  0  0  0
    2.0236    1.2378    0.8946 C   0  0  0  0  0  0
    1.5622    2.5460    0.6611 C   0  0  0  0  0  0
    1.1941    3.3790    1.7206 C   0  0  0  0  0  0
    1.2756    2.9171    3.0307 C   0  0  0  0  0  0
    1.7257    1.6237    3.2808 C   0  0  0  0  0  0
    2.0978    0.7894    2.2225 C   0  0  0  0  0  0
   -1.1826   -0.3753   -1.1049 N   0  0  0  0  0  0
   -7.3590   -0.6555   -1.2886 H   0  0  0  0  0  0
   -5.7259   -1.9640   -2.6206 H   0  0  0  0  0  0
   -3.3106   -1.8433   -2.0895 H   0  0  0  0  0  0
    1.2816   -0.3096   -1.9804 H   0  0  0  0  0  0
    2.8175   -2.2213   -2.6976 H   0  0  0  0  0  0
    3.3489   -3.2580   -1.3873 H   0  0  0  0  0  0
    4.2689   -0.5760   -2.1295 H   0  0  0  0  0  0
    5.0463   -1.7683   -1.0909 H   0  0  0  0  0  0
    3.6777   -1.0450    0.8227 H   0  0  0  0  0  0
    4.5618    0.3188    0.1556 H   0  0  0  0  0  0
    2.6708    1.0786   -1.0943 H   0  0  0  0  0  0
    1.4805    2.9316   -0.3529 H   0  0  0  0  0  0
    0.8404    4.3878    1.5227 H   0  0  0  0  0  0
    0.9823    3.5611    3.8564 H   0  0  0  0  0  0
    1.7789    1.2567    4.3029 H   0  0  0  0  0  0
    2.4218   -0.2234    2.4532 H   0  0  0  0  0  0
    1.7408   -2.0290   -0.8866 N   0  3  0  0  0  0
    1.8638   -2.3233    0.0893 H   0  0  0  0  0  0
    1.0004   -2.5910   -1.3229 H   0  0  0  0  0  0
  1  2  1  0  0  0
  2  3  2  0  0  0
  2  8  1  0  0  0
  3  4  1  0  0  0
  3  5  1  0  0  0
  5  6  2  0  0  0
  5 25  1  0  0  0
  6  7  1  0  0  0
  6 26  1  0  0  0
  7  8  2  0  0  0
  7 27  1  0  0  0
  8  9  1  0  0  0
  9 10  2  0  0  0
  9 24  1  0  0  0
 10 11  1  0  0  0
 11 12  1  0  0  0
 12 13  1  0  0  0
 12 24  2  0  0  0
 13 17  1  0  0  0
 13 28  1  0  0  0
 13 41  1  0  0  0
 14 15  1  0  0  0
 14 29  1  0  0  0
 14 30  1  0  0  0
 14 41  1  0  0  0
 15 16  1  0  0  0
 15 31  1  0  0  0
 15 32  1  0  0  0
 16 17  1  0  0  0
 16 33  1  0  0  0
 16 34  1  0  0  0
 17 18  1  0  0  0
 17 35  1  0  0  0
 18 19  2  0  0  0
 18 23  1  0  0  0
 19 20  1  0  0  0
 19 36  1  0  0  0
 20 21  2  0  0  0
 20 37  1  0  0  0
 21 22  1  0  0  0
 21 38  1  0  0  0
 22 23  2  0  0  0
 22 39  1  0  0  0
 23 40  1  0  0  0
 41 42  1  0  0  0
 41 43  1  0  0  0
M  CHG  1  41   1
M  END
> <energy>
104.303

> <i_ionizer_Ion_state_n>
1

> <i_ionizer_Tot_Q>
1

> <s_ionizer_Ion_centers>
41

> <s_ionizer_Ion_types>
N5

> <s_ionizer_Ion_ctrs_in>
14

> <r_ionizer_Ionization_penalty>
0.000148807

> <r_ionizer_Ionization_penalty_charging>
0.000148807

> <r_ionizer_Ionization_penalty_neutral>
0

$$$$
ZINC001211869560
                    3D
 Schrodinger Suite 2019-4.
 43 46  0  0  1  0            999 V2000
   -4.0851   -2.0797   -0.2727 F   0  0  0  0  0  0
   -4.5833   -0.8943    0.1186 C   0  0  0  0  0  0
   -5.9245   -0.8021    0.4942 C   0  0  0  0  0  0
   -6.9449   -2.1928    0.4715 Cl  0  0  0  0  0  0
   -6.4632    0.4272    0.8800 C   0  0  0  0  0  0
   -5.6568    1.5673    0.8836 C   0  0  0  0  0  0
   -4.3140    1.4752    0.5049 C   0  0  0  0  0  0
   -3.7669    0.2398    0.1238 C   0  0  0  0  0  0
   -2.3772    0.1355   -0.2645 C   0  0  0  0  0  0
   -1.8354    0.8432   -1.2689 N   0  0  0  0  0  0
   -0.5211    0.3766   -1.3232 O   0  0  0  0  0  0
   -0.3865   -0.5315   -0.3106 C   0  0  0  0  0  0
    0.9455   -1.2208   -0.1444 C   0  0  2  0  0  0
    2.1365   -3.3086   -0.5565 C   0  0  0  0  0  0
    3.3571   -2.5692   -1.0900 C   0  0  0  0  0  0
    3.4636   -1.1729   -0.4849 C   0  0  0  0  0  0
    2.1518   -0.3746   -0.6567 C   0  0  2  0  0  0
    2.3462    0.9976   -0.0190 C   0  0  0  0  0  0
    1.9936    1.2789    1.3085 C   0  0  0  0  0  0
    2.2176    2.5445    1.8544 C   0  0  0  0  0  0
    2.8209    3.5404    1.0929 C   0  0  0  0  0  0
    3.2016    3.2731   -0.2188 C   0  0  0  0  0  0
    2.9583    2.0147   -0.7737 C   0  0  0  0  0  0
   -1.4953   -0.6968    0.3810 N   0  0  0  0  0  0
   -7.5083    0.5012    1.1731 H   0  0  0  0  0  0
   -6.0767    2.5247    1.1862 H   0  0  0  0  0  0
   -3.6935    2.3693    0.5172 H   0  0  0  0  0  0
    1.0595   -1.3989    0.9329 H   0  0  0  0  0  0
    2.2522   -3.5112    0.5163 H   0  0  0  0  0  0
    2.0559   -4.2837   -1.0504 H   0  0  0  0  0  0
    4.2646   -3.1382   -0.8576 H   0  0  0  0  0  0
    3.2978   -2.4900   -2.1825 H   0  0  0  0  0  0
    4.3001   -0.6444   -0.9588 H   0  0  0  0  0  0
    3.7128   -1.2621    0.5805 H   0  0  0  0  0  0
    2.0003   -0.2155   -1.7370 H   0  0  0  0  0  0
    1.5437    0.5228    1.9479 H   0  0  0  0  0  0
    1.9260    2.7481    2.8819 H   0  0  0  0  0  0
    3.0022    4.5221    1.5239 H   0  0  0  0  0  0
    3.6927    4.0435   -0.8094 H   0  0  0  0  0  0
    3.2612    1.8320   -1.8026 H   0  0  0  0  0  0
    0.8951   -2.5617   -0.8025 N   0  3  0  0  0  0
    0.1019   -3.0930   -0.4247 H   0  0  0  0  0  0
    0.7723   -2.4363   -1.8141 H   0  0  0  0  0  0
  1  2  1  0  0  0
  2  3  2  0  0  0
  2  8  1  0  0  0
  3  4  1  0  0  0
  3  5  1  0  0  0
  5  6  2  0  0  0
  5 25  1  0  0  0
  6  7  1  0  0  0
  6 26  1  0  0  0
  7  8  2  0  0  0
  7 27  1  0  0  0
  8  9  1  0  0  0
  9 10  2  0  0  0
  9 24  1  0  0  0
 10 11  1  0  0  0
 11 12  1  0  0  0
 12 13  1  0  0  0
 12 24  2  0  0  0
 13 17  1  0  0  0
 13 28  1  0  0  0
 13 41  1  0  0  0
 14 15  1  0  0  0
 14 29  1  0  0  0
 14 30  1  0  0  0
 14 41  1  0  0  0
 15 16  1  0  0  0
 15 31  1  0  0  0
 15 32  1  0  0  0
 16 17  1  0  0  0
 16 33  1  0  0  0
 16 34  1  0  0  0
 17 18  1  0  0  0
 17 35  1  0  0  0
 18 19  2  0  0  0
 18 23  1  0  0  0
 19 20  1  0  0  0
 19 36  1  0  0  0
 20 21  2  0  0  0
 20 37  1  0  0  0
 21 22  1  0  0  0
 21 38  1  0  0  0
 22 23  2  0  0  0
 22 39  1  0  0  0
 23 40  1  0  0  0
 41 42  1  0  0  0
 41 43  1  0  0  0
M  CHG  1  41   1
M  END
> <energy>
93.653

> <i_ionizer_Ion_state_n>
1

> <i_ionizer_Tot_Q>
1

> <s_ionizer_Ion_centers>
41

> <s_ionizer_Ion_types>
N5

> <s_ionizer_Ion_ctrs_in>
14

> <r_ionizer_Ionization_penalty>
0.000148807

> <r_ionizer_Ionization_penalty_charging>
0.000148807

> <r_ionizer_Ionization_penalty_neutral>
0

$$$$
ZINC001211869561
                    3D
 Schrodinger Suite 2019-4.
 43 46  0  0  1  0            999 V2000
   -3.7352   -2.6155   -0.1507 F   0  0  0  0  0  0
   -4.1273   -1.3352   -0.2637 C   0  0  0  0  0  0
   -5.3313   -1.0333   -0.8981 C   0  0  0  0  0  0
   -6.3272   -2.2855   -1.5378 Cl  0  0  0  0  0  0
   -5.7474    0.2945   -1.0191 C   0  0  0  0  0  0
   -4.9602    1.3221   -0.4969 C   0  0  0  0  0  0
   -3.7558    1.0195    0.1410 C   0  0  0  0  0  0
   -3.3357   -0.3147    0.2634 C   0  0  0  0  0  0
   -2.0772   -0.6192    0.9052 C   0  0  0  0  0  0
   -1.8253   -0.3730    2.2008 N   0  0  0  0  0  0
   -0.4867   -0.7416    2.3457 O   0  0  0  0  0  0
   -0.0623   -1.1456    1.1127 C   0  0  0  0  0  0
    1.3947   -1.4945    0.9699 C   0  0  2  0  0  0
    3.0174   -2.6467   -0.4644 C   0  0  0  0  0  0
    3.8745   -1.3922   -0.5821 C   0  0  0  0  0  0
    3.7485   -0.5198    0.6641 C   0  0  0  0  0  0
    2.2870   -0.2128    1.0404 C   0  0  1  0  0  0
    1.7739    1.0325    0.3177 C   0  0  0  0  0  0
    1.4080    1.0412   -1.0346 C   0  0  0  0  0  0
    0.9174    2.2047   -1.6350 C   0  0  0  0  0  0
    0.7891    3.3772   -0.8962 C   0  0  0  0  0  0
    1.1604    3.3927    0.4436 C   0  0  0  0  0  0
    1.6523    2.2321    1.0425 C   0  0  0  0  0  0
   -1.0075   -1.1030    0.1957 N   0  0  0  0  0  0
   -6.6814    0.5336   -1.5201 H   0  0  0  0  0  0
   -5.2799    2.3577   -0.5926 H   0  0  0  0  0  0
   -3.1387    1.8242    0.5357 H   0  0  0  0  0  0
    1.6574   -2.1167    1.8381 H   0  0  0  0  0  0
    3.0955   -3.2238   -1.3929 H   0  0  0  0  0  0
    3.4043   -3.2929    0.3333 H   0  0  0  0  0  0
    4.9242   -1.6793   -0.7160 H   0  0  0  0  0  0
    3.5959   -0.8259   -1.4764 H   0  0  0  0  0  0
    4.3291    0.4024    0.5343 H   0  0  0  0  0  0
    4.2127   -1.0601    1.5015 H   0  0  0  0  0  0
    2.3122    0.0592    2.1085 H   0  0  0  0  0  0
    1.4879    0.1498   -1.6469 H   0  0  0  0  0  0
    0.6356    2.1913   -2.6847 H   0  0  0  0  0  0
    0.4022    4.2786   -1.3652 H   0  0  0  0  0  0
    1.0703    4.3065    1.0248 H   0  0  0  0  0  0
    1.9378    2.2764    2.0919 H   0  0  0  0  0  0
    1.5940   -2.3620   -0.2311 N   0  3  0  0  0  0
    1.0963   -3.2486   -0.0879 H   0  0  0  0  0  0
    1.2109   -1.8836   -1.0548 H   0  0  0  0  0  0
  1  2  1  0  0  0
  2  3  2  0  0  0
  2  8  1  0  0  0
  3  4  1  0  0  0
  3  5  1  0  0  0
  5  6  2  0  0  0
  5 25  1  0  0  0
  6  7  1  0  0  0
  6 26  1  0  0  0
  7  8  2  0  0  0
  7 27  1  0  0  0
  8  9  1  0  0  0
  9 10  2  0  0  0
  9 24  1  0  0  0
 10 11  1  0  0  0
 11 12  1  0  0  0
 12 13  1  0  0  0
 12 24  2  0  0  0
 13 17  1  0  0  0
 13 28  1  0  0  0
 13 41  1  0  0  0
 14 15  1  0  0  0
 14 29  1  0  0  0
 14 30  1  0  0  0
 14 41  1  0  0  0
 15 16  1  0  0  0
 15 31  1  0  0  0
 15 32  1  0  0  0
 16 17  1  0  0  0
 16 33  1  0  0  0
 16 34  1  0  0  0
 17 18  1  0  0  0
 17 35  1  0  0  0
 18 19  2  0  0  0
 18 23  1  0  0  0
 19 20  1  0  0  0
 19 36  1  0  0  0
 20 21  2  0  0  0
 20 37  1  0  0  0
 21 22  1  0  0  0
 21 38  1  0  0  0
 22 23  2  0  0  0
 22 39  1  0  0  0
 23 40  1  0  0  0
 41 42  1  0  0  0
 41 43  1  0  0  0
M  CHG  1  41   1
M  END
> <energy>
95.2985

> <i_ionizer_Ion_state_n>
1

> <i_ionizer_Tot_Q>
1

> <s_ionizer_Ion_centers>
41

> <s_ionizer_Ion_types>
N5

> <s_ionizer_Ion_ctrs_in>
14

> <r_ionizer_Ionization_penalty>
0.000148807

> <r_ionizer_Ionization_penalty_charging>
0.000148807

> <r_ionizer_Ionization_penalty_neutral>
0

$$$$
ZINC001211869562
                    3D
 Schrodinger Suite 2019-4.
 43 46  0  0  1  0            999 V2000
   -4.5689   -0.1727   -2.5001 F   0  0  0  0  0  0
   -4.6169    0.4039   -1.2883 C   0  0  0  0  0  0
   -5.8415    0.8711   -0.8054 C   0  0  0  0  0  0
   -7.2707    0.7388   -1.7593 Cl  0  0  0  0  0  0
   -5.9262    1.4476    0.4618 C   0  0  0  0  0  0
   -4.7829    1.5519    1.2529 C   0  0  0  0  0  0
   -3.5585    1.0779    0.7732 C   0  0  0  0  0  0
   -3.4602    0.5057   -0.5068 C   0  0  0  0  0  0
   -2.1718    0.0307   -0.9835 C   0  0  0  0  0  0
   -1.7951    0.0253   -2.2714 N   0  0  0  0  0  0
   -0.5108   -0.5075   -2.2410 O   0  0  0  0  0  0
   -0.2254   -0.7648   -0.9318 C   0  0  0  0  0  0
    1.1071   -1.4067   -0.6592 C   0  0  1  0  0  0
    2.1954   -3.5426   -0.1884 C   0  0  0  0  0  0
    2.8774   -2.9772    1.0523 C   0  0  0  0  0  0
    3.1130   -1.4778    0.9114 C   0  0  0  0  0  0
    1.8044   -0.7426    0.5610 C   0  0  1  0  0  0
    2.0961    0.7421    0.3789 C   0  0  0  0  0  0
    1.6206    1.6584    1.3294 C   0  0  0  0  0  0
    1.8951    3.0207    1.2055 C   0  0  0  0  0  0
    2.6446    3.4856    0.1285 C   0  0  0  0  0  0
    3.1213    2.5876   -0.8238 C   0  0  0  0  0  0
    2.8512    1.2238   -0.7009 C   0  0  0  0  0  0
   -1.2049   -0.4354   -0.1169 N   0  0  0  0  0  0
   -6.8785    1.8129    0.8383 H   0  0  0  0  0  0
   -4.8441    1.9984    2.2432 H   0  0  0  0  0  0
   -2.6736    1.1596    1.4032 H   0  0  0  0  0  0
    1.7293   -1.2764   -1.5545 H   0  0  0  0  0  0
    2.8560   -3.4637   -1.0593 H   0  0  0  0  0  0
    1.9997   -4.6096   -0.0340 H   0  0  0  0  0  0
    3.8344   -3.4866    1.2126 H   0  0  0  0  0  0
    2.2595   -3.1691    1.9391 H   0  0  0  0  0  0
    3.8704   -1.3114    0.1339 H   0  0  0  0  0  0
    3.5313   -1.0830    1.8461 H   0  0  0  0  0  0
    1.1337   -0.8542    1.4266 H   0  0  0  0  0  0
    1.0329    1.3148    2.1776 H   0  0  0  0  0  0
    1.5243    3.7179    1.9517 H   0  0  0  0  0  0
    2.8608    4.5459    0.0336 H   0  0  0  0  0  0
    3.7086    2.9501   -1.6631 H   0  0  0  0  0  0
    3.2483    0.5464   -1.4531 H   0  0  0  0  0  0
    0.9120   -2.8738   -0.4481 N   0  3  0  0  0  0
    0.2895   -3.0178    0.3556 H   0  0  0  0  0  0
    0.4853   -3.2805   -1.2887 H   0  0  0  0  0  0
  1  2  1  0  0  0
  2  3  2  0  0  0
  2  8  1  0  0  0
  3  4  1  0  0  0
  3  5  1  0  0  0
  5  6  2  0  0  0
  5 25  1  0  0  0
  6  7  1  0  0  0
  6 26  1  0  0  0
  7  8  2  0  0  0
  7 27  1  0  0  0
  8  9  1  0  0  0
  9 10  2  0  0  0
  9 24  1  0  0  0
 10 11  1  0  0  0
 11 12  1  0  0  0
 12 13  1  0  0  0
 12 24  2  0  0  0
 13 17  1  0  0  0
 13 28  1  0  0  0
 13 41  1  0  0  0
 14 15  1  0  0  0
 14 29  1  0  0  0
 14 30  1  0  0  0
 14 41  1  0  0  0
 15 16  1  0  0  0
 15 31  1  0  0  0
 15 32  1  0  0  0
 16 17  1  0  0  0
 16 33  1  0  0  0
 16 34  1  0  0  0
 17 18  1  0  0  0
 17 35  1  0  0  0
 18 19  2  0  0  0
 18 23  1  0  0  0
 19 20  1  0  0  0
 19 36  1  0  0  0
 20 21  2  0  0  0
 20 37  1  0  0  0
 21 22  1  0  0  0
 21 38  1  0  0  0
 22 23  2  0  0  0
 22 39  1  0  0  0
 23 40  1  0  0  0
 41 42  1  0  0  0
 41 43  1  0  0  0
M  CHG  1  41   1
M  END
> <energy>
88.3139

> <i_ionizer_Ion_state_n>
1

> <i_ionizer_Tot_Q>
1

> <s_ionizer_Ion_centers>
41

> <s_ionizer_Ion_types>
N5

> <s_ionizer_Ion_ctrs_in>
14

> <r_ionizer_Ionization_penalty>
0.000148807

> <r_ionizer_Ionization_penalty_charging>
0.000148807

> <r_ionizer_Ionization_penalty_neutral>
0

$$$$
ZINC001211869619
                    3D
 Schrodinger Suite 2019-4.
 46 49  0  0  1  0            999 V2000
    5.4105   -0.1886    1.0796 C   0  0  0  0  0  0
    4.6503   -1.1353    0.2010 C   0  0  0  0  0  0
    3.2597   -1.0033    0.0739 C   0  0  0  0  0  0
    2.5205   -1.8774   -0.7429 C   0  0  0  0  0  0
    1.0872   -1.6914   -0.8653 C   0  0  0  0  0  0
    0.3928   -1.8492   -2.0021 N   0  0  0  0  0  0
   -0.9057   -1.4734   -1.6523 O   0  0  0  0  0  0
   -0.8649   -1.1321   -0.3319 C   0  0  0  0  0  0
   -2.1386   -0.6755    0.3199 C   0  0  1  0  0  0
   -4.4354   -1.2890    0.8563 C   0  0  0  0  0  0
   -4.9564    0.0438    0.3283 C   0  0  0  0  0  0
   -3.9039    1.1404    0.4477 C   0  0  0  0  0  0
   -2.5872    0.7104   -0.2260 C   0  0  1  0  0  0
   -1.5633    1.8324   -0.0917 C   0  0  0  0  0  0
   -0.7570    1.9892    1.0461 C   0  0  0  0  0  0
    0.1732    3.0289    1.1214 C   0  0  0  0  0  0
    0.2964    3.9370    0.0721 C   0  0  0  0  0  0
   -0.5140    3.8097   -1.0513 C   0  0  0  0  0  0
   -1.4335    2.7640   -1.1349 C   0  0  0  0  0  0
    0.3307   -1.2562    0.2003 N   0  0  0  0  0  0
    3.1941   -2.9034   -1.4070 C   0  0  0  0  0  0
    2.5302   -3.7836   -2.1705 F   0  0  0  0  0  0
    4.5701   -3.0672   -1.2683 C   0  0  0  0  0  0
    5.2854   -2.1835   -0.4671 C   0  0  0  0  0  0
    6.6092   -2.3534   -0.3419 F   0  0  0  0  0  0
    6.4811   -0.1944    0.8500 H   0  0  0  0  0  0
    5.2725   -0.4658    2.1295 H   0  0  0  0  0  0
    5.0520    0.8364    0.9315 H   0  0  0  0  0  0
    2.7453   -0.2052    0.6079 H   0  0  0  0  0  0
   -1.9258   -0.5913    1.3930 H   0  0  0  0  0  0
   -4.2665   -1.2271    1.9389 H   0  0  0  0  0  0
   -5.1945   -2.0634    0.6993 H   0  0  0  0  0  0
   -5.8545    0.3340    0.8857 H   0  0  0  0  0  0
   -5.2529   -0.0648   -0.7229 H   0  0  0  0  0  0
   -3.7305    1.3613    1.5090 H   0  0  0  0  0  0
   -4.2855    2.0633   -0.0058 H   0  0  0  0  0  0
   -2.7917    0.5817   -1.3001 H   0  0  0  0  0  0
   -0.8304    1.3081    1.8899 H   0  0  0  0  0  0
    0.8028    3.1300    2.0014 H   0  0  0  0  0  0
    1.0198    4.7454    0.1325 H   0  0  0  0  0  0
   -0.4296    4.5221   -1.8675 H   0  0  0  0  0  0
   -2.0528    2.6812   -2.0263 H   0  0  0  0  0  0
    5.0777   -3.8786   -1.7774 H   0  0  0  0  0  0
   -3.2072   -1.7052    0.1650 N   0  3  0  0  0  0
   -3.4096   -1.8331   -0.8334 H   0  0  0  0  0  0
   -2.8803   -2.5928    0.5644 H   0  0  0  0  0  0
  1  2  1  0  0  0
  1 26  1  0  0  0
  1 27  1  0  0  0
  1 28  1  0  0  0
  2  3  2  0  0  0
  2 24  1  0  0  0
  3  4  1  0  0  0
  3 29  1  0  0  0
  4  5  1  0  0  0
  4 21  2  0  0  0
  5  6  2  0  0  0
  5 20  1  0  0  0
  6  7  1  0  0  0
  7  8  1  0  0  0
  8  9  1  0  0  0
  8 20  2  0  0  0
  9 13  1  0  0  0
  9 30  1  0  0  0
  9 44  1  0  0  0
 10 11  1  0  0  0
 10 31  1  0  0  0
 10 32  1  0  0  0
 10 44  1  0  0  0
 11 12  1  0  0  0
 11 33  1  0  0  0
 11 34  1  0  0  0
 12 13  1  0  0  0
 12 35  1  0  0  0
 12 36  1  0  0  0
 13 14  1  0  0  0
 13 37  1  0  0  0
 14 15  2  0  0  0
 14 19  1  0  0  0
 15 16  1  0  0  0
 15 38  1  0  0  0
 16 17  2  0  0  0
 16 39  1  0  0  0
 17 18  1  0  0  0
 17 40  1  0  0  0
 18 19  2  0  0  0
 18 41  1  0  0  0
 19 42  1  0  0  0
 21 22  1  0  0  0
 21 23  1  0  0  0
 23 24  2  0  0  0
 23 43  1  0  0  0
 24 25  1  0  0  0
 44 45  1  0  0  0
 44 46  1  0  0  0
M  CHG  1  44   1
M  END
> <energy>
79.2668

> <i_ionizer_Ion_state_n>
1

> <i_ionizer_Tot_Q>
1

> <s_ionizer_Ion_centers>
44

> <s_ionizer_Ion_types>
N5

> <s_ionizer_Ion_ctrs_in>
10

> <r_ionizer_Ionization_penalty>
0.000148807

> <r_ionizer_Ionization_penalty_charging>
0.000148807

> <r_ionizer_Ionization_penalty_neutral>
0

$$$$
ZINC001211869620
                    3D
 Schrodinger Suite 2019-4.
 46 49  0  0  1  0            999 V2000
    5.8260    1.2513    0.1881 C   0  0  0  0  0  0
    4.8981    0.2563    0.8158 C   0  0  0  0  0  0
    3.5270    0.5338    0.9309 C   0  0  0  0  0  0
    2.6446   -0.4087    1.4890 C   0  0  0  0  0  0
    1.2250   -0.1094    1.5626 C   0  0  0  0  0  0
    0.4070   -0.5218    2.5433 N   0  0  0  0  0  0
   -0.8397   -0.0272    2.1643 O   0  0  0  0  0  0
   -0.6512    0.6488    0.9935 C   0  0  0  0  0  0
   -1.8818    1.2205    0.3429 C   0  0  2  0  0  0
   -2.6318    3.3311   -0.7215 C   0  0  0  0  0  0
   -3.8267    2.4854   -1.1352 C   0  0  0  0  0  0
   -3.3819    1.1539   -1.7361 C   0  0  0  0  0  0
   -2.1124    0.5888   -1.0604 C   0  0  2  0  0  0
   -2.1366   -0.9352   -1.0323 C   0  0  0  0  0  0
   -1.1133   -1.6574   -1.6652 C   0  0  0  0  0  0
   -1.0770   -3.0509   -1.5960 C   0  0  0  0  0  0
   -2.0662   -3.7405   -0.8995 C   0  0  0  0  0  0
   -3.0912   -3.0383   -0.2703 C   0  0  0  0  0  0
   -3.1265   -1.6439   -0.3335 C   0  0  0  0  0  0
    0.6047    0.6569    0.5992 N   0  0  0  0  0  0
    3.1591   -1.6346    1.9207 C   0  0  0  0  0  0
    2.3562   -2.5789    2.4334 F   0  0  0  0  0  0
    4.5122   -1.9329    1.7941 C   0  0  0  0  0  0
    5.3672   -0.9910    1.2381 C   0  0  0  0  0  0
    6.6641   -1.3002    1.0995 F   0  0  0  0  0  0
    5.5319    2.2728    0.4507 H   0  0  0  0  0  0
    5.8076    1.1458   -0.9008 H   0  0  0  0  0  0
    6.8539    1.1114    0.5385 H   0  0  0  0  0  0
    3.1417    1.4918    0.5818 H   0  0  0  0  0  0
   -2.7431    0.9761    0.9805 H   0  0  0  0  0  0
   -2.0176    3.5479   -1.6041 H   0  0  0  0  0  0
   -2.9762    4.3003   -0.3424 H   0  0  0  0  0  0
   -4.4422    3.0282   -1.8612 H   0  0  0  0  0  0
   -4.4678    2.2998   -0.2639 H   0  0  0  0  0  0
   -4.2303    0.4600   -1.6933 H   0  0  0  0  0  0
   -3.1726    1.2868   -2.8066 H   0  0  0  0  0  0
   -1.2645    0.8920   -1.6928 H   0  0  0  0  0  0
   -0.3187   -1.1359   -2.1973 H   0  0  0  0  0  0
   -0.2697   -3.5954   -2.0774 H   0  0  0  0  0  0
   -2.0320   -4.8249   -0.8400 H   0  0  0  0  0  0
   -3.8561   -3.5763    0.2823 H   0  0  0  0  0  0
   -3.9325   -1.1201    0.1744 H   0  0  0  0  0  0
    4.8905   -2.8980    2.1106 H   0  0  0  0  0  0
   -1.7628    2.7190    0.3084 N   0  3  0  0  0  0
   -2.0281    3.0921    1.2275 H   0  0  0  0  0  0
   -0.7873    2.9678    0.1066 H   0  0  0  0  0  0
  1  2  1  0  0  0
  1 26  1  0  0  0
  1 27  1  0  0  0
  1 28  1  0  0  0
  2  3  2  0  0  0
  2 24  1  0  0  0
  3  4  1  0  0  0
  3 29  1  0  0  0
  4  5  1  0  0  0
  4 21  2  0  0  0
  5  6  2  0  0  0
  5 20  1  0  0  0
  6  7  1  0  0  0
  7  8  1  0  0  0
  8  9  1  0  0  0
  8 20  2  0  0  0
  9 13  1  0  0  0
  9 30  1  0  0  0
  9 44  1  0  0  0
 10 11  1  0  0  0
 10 31  1  0  0  0
 10 32  1  0  0  0
 10 44  1  0  0  0
 11 12  1  0  0  0
 11 33  1  0  0  0
 11 34  1  0  0  0
 12 13  1  0  0  0
 12 35  1  0  0  0
 12 36  1  0  0  0
 13 14  1  0  0  0
 13 37  1  0  0  0
 14 15  2  0  0  0
 14 19  1  0  0  0
 15 16  1  0  0  0
 15 38  1  0  0  0
 16 17  2  0  0  0
 16 39  1  0  0  0
 17 18  1  0  0  0
 17 40  1  0  0  0
 18 19  2  0  0  0
 18 41  1  0  0  0
 19 42  1  0  0  0
 21 22  1  0  0  0
 21 23  1  0  0  0
 23 24  2  0  0  0
 23 43  1  0  0  0
 24 25  1  0  0  0
 44 45  1  0  0  0
 44 46  1  0  0  0
M  CHG  1  44   1
M  END
> <energy>
86.364

> <i_ionizer_Ion_state_n>
1

> <i_ionizer_Tot_Q>
1

> <s_ionizer_Ion_centers>
44

> <s_ionizer_Ion_types>
N5

> <s_ionizer_Ion_ctrs_in>
10

> <r_ionizer_Ionization_penalty>
0.000148807

> <r_ionizer_Ionization_penalty_charging>
0.000148807

> <r_ionizer_Ionization_penalty_neutral>
0

$$$$
ZINC001211869621
                    3D
 Schrodinger Suite 2019-4.
 46 49  0  0  1  0            999 V2000
    4.0025    0.9487    2.8886 C   0  0  0  0  0  0
    3.9170    0.2825    1.5496 C   0  0  0  0  0  0
    2.6892   -0.1593    1.0344 C   0  0  0  0  0  0
    2.6083   -0.7641   -0.2351 C   0  0  0  0  0  0
    1.3112   -1.1883   -0.7475 C   0  0  0  0  0  0
    1.0937   -1.6675   -1.9817 N   0  0  0  0  0  0
   -0.2826   -1.8484   -2.0360 O   0  0  0  0  0  0
   -0.7754   -1.4727   -0.8203 C   0  0  0  0  0  0
   -2.2699   -1.5489   -0.6628 C   0  0  2  0  0  0
   -2.3793   -2.1734    1.7188 C   0  0  0  0  0  0
   -2.3790   -0.6692    2.0050 C   0  0  0  0  0  0
   -3.3026    0.0892    1.0636 C   0  0  0  0  0  0
   -2.9761   -0.1766   -0.4262 C   0  0  1  0  0  0
   -2.3060    0.9862   -1.1515 C   0  0  0  0  0  0
   -2.5888    1.2004   -2.5108 C   0  0  0  0  0  0
   -1.9725    2.2367   -3.2153 C   0  0  0  0  0  0
   -1.0613    3.0715   -2.5738 C   0  0  0  0  0  0
   -0.7600    2.8660   -1.2302 C   0  0  0  0  0  0
   -1.3742    1.8288   -0.5252 C   0  0  0  0  0  0
    0.1657   -1.0987    0.0198 N   0  0  0  0  0  0
    3.7886   -0.9135   -0.9737 C   0  0  0  0  0  0
    3.7845   -1.4838   -2.1879 F   0  0  0  0  0  0
    5.0129   -0.4743   -0.4784 C   0  0  0  0  0  0
    5.0663    0.1213    0.7735 C   0  0  0  0  0  0
    6.2473    0.5519    1.2364 F   0  0  0  0  0  0
    4.7911    0.4879    3.4924 H   0  0  0  0  0  0
    4.2192    2.0147    2.7656 H   0  0  0  0  0  0
    3.0634    0.8519    3.4437 H   0  0  0  0  0  0
    1.7829   -0.0237    1.6240 H   0  0  0  0  0  0
   -2.6519   -1.9190   -1.6261 H   0  0  0  0  0  0
   -3.1189   -2.6597    2.3655 H   0  0  0  0  0  0
   -1.4052   -2.5878    2.0045 H   0  0  0  0  0  0
   -2.6896   -0.4970    3.0426 H   0  0  0  0  0  0
   -1.3623   -0.2708    1.9218 H   0  0  0  0  0  0
   -3.3083    1.1583    1.3041 H   0  0  0  0  0  0
   -4.3265   -0.2587    1.2582 H   0  0  0  0  0  0
   -3.9736   -0.2624   -0.8884 H   0  0  0  0  0  0
   -3.2913    0.5567   -3.0362 H   0  0  0  0  0  0
   -2.2012    2.3895   -4.2668 H   0  0  0  0  0  0
   -0.5825    3.8786   -3.1217 H   0  0  0  0  0  0
   -0.0396    3.5089   -0.7307 H   0  0  0  0  0  0
   -1.0989    1.6800    0.5158 H   0  0  0  0  0  0
    5.9149   -0.5928   -1.0683 H   0  0  0  0  0  0
   -2.7140   -2.5726    0.3322 N   0  3  0  0  0  0
   -3.7312   -2.6902    0.2567 H   0  0  0  0  0  0
   -2.2498   -3.4639    0.1219 H   0  0  0  0  0  0
  1  2  1  0  0  0
  1 26  1  0  0  0
  1 27  1  0  0  0
  1 28  1  0  0  0
  2  3  2  0  0  0
  2 24  1  0  0  0
  3  4  1  0  0  0
  3 29  1  0  0  0
  4  5  1  0  0  0
  4 21  2  0  0  0
  5  6  2  0  0  0
  5 20  1  0  0  0
  6  7  1  0  0  0
  7  8  1  0  0  0
  8  9  1  0  0  0
  8 20  2  0  0  0
  9 13  1  0  0  0
  9 30  1  0  0  0
  9 44  1  0  0  0
 10 11  1  0  0  0
 10 31  1  0  0  0
 10 32  1  0  0  0
 10 44  1  0  0  0
 11 12  1  0  0  0
 11 33  1  0  0  0
 11 34  1  0  0  0
 12 13  1  0  0  0
 12 35  1  0  0  0
 12 36  1  0  0  0
 13 14  1  0  0  0
 13 37  1  0  0  0
 14 15  2  0  0  0
 14 19  1  0  0  0
 15 16  1  0  0  0
 15 38  1  0  0  0
 16 17  2  0  0  0
 16 39  1  0  0  0
 17 18  1  0  0  0
 17 40  1  0  0  0
 18 19  2  0  0  0
 18 41  1  0  0  0
 19 42  1  0  0  0
 21 22  1  0  0  0
 21 23  1  0  0  0
 23 24  2  0  0  0
 23 43  1  0  0  0
 24 25  1  0  0  0
 44 45  1  0  0  0
 44 46  1  0  0  0
M  CHG  1  44   1
M  END
> <energy>
87.0643

> <i_ionizer_Ion_state_n>
1

> <i_ionizer_Tot_Q>
1

> <s_ionizer_Ion_centers>
44

> <s_ionizer_Ion_types>
N5

> <s_ionizer_Ion_ctrs_in>
10

> <r_ionizer_Ionization_penalty>
0.000148807

> <r_ionizer_Ionization_penalty_charging>
0.000148807

> <r_ionizer_Ionization_penalty_neutral>
0

$$$$
ZINC001211869622
                    3D
 Schrodinger Suite 2019-4.
 46 49  0  0  1  0            999 V2000
    4.3729    1.5536   -2.4660 C   0  0  0  0  0  0
    4.1979    1.1814   -1.0251 C   0  0  0  0  0  0
    2.9969    0.6299   -0.5562 C   0  0  0  0  0  0
    2.8378    0.2902    0.8009 C   0  0  0  0  0  0
    1.5721   -0.2607    1.2581 C   0  0  0  0  0  0
    1.1528   -0.2685    2.5325 N   0  0  0  0  0  0
   -0.1139   -0.8427    2.4667 O   0  0  0  0  0  0
   -0.3409   -1.1305    1.1535 C   0  0  0  0  0  0
   -1.6504   -1.7944    0.8213 C   0  0  1  0  0  0
   -1.6685   -3.3816   -1.0920 C   0  0  0  0  0  0
   -1.2132   -2.2113   -1.9554 C   0  0  0  0  0  0
   -1.8949   -0.8965   -1.5718 C   0  0  0  0  0  0
   -2.5080   -0.9448   -0.1569 C   0  0  2  0  0  0
   -2.9172    0.4142    0.3975 C   0  0  0  0  0  0
   -4.1631    0.5472    1.0342 C   0  0  0  0  0  0
   -4.5783    1.7766    1.5507 C   0  0  0  0  0  0
   -3.7502    2.8906    1.4486 C   0  0  0  0  0  0
   -2.5037    2.7724    0.8404 C   0  0  0  0  0  0
   -2.0889    1.5440    0.3191 C   0  0  0  0  0  0
    0.6637   -0.8006    0.3717 N   0  0  0  0  0  0
    3.9135    0.5012    1.6710 C   0  0  0  0  0  0
    3.8300    0.1762    2.9693 F   0  0  0  0  0  0
    5.1135    1.0401    1.2176 C   0  0  0  0  0  0
    5.2451    1.3762   -0.1219 C   0  0  0  0  0  0
    6.4044    1.8947   -0.5495 F   0  0  0  0  0  0
    4.6546    2.6078   -2.5524 H   0  0  0  0  0  0
    5.1506    0.9341   -2.9241 H   0  0  0  0  0  0
    3.4472    1.4091   -3.0324 H   0  0  0  0  0  0
    2.1729    0.4708   -1.2522 H   0  0  0  0  0  0
   -2.2080   -1.8892    1.7623 H   0  0  0  0  0  0
   -2.7356   -3.5699   -1.2580 H   0  0  0  0  0  0
   -1.1495   -4.2933   -1.4095 H   0  0  0  0  0  0
   -0.1258   -2.0990   -1.8713 H   0  0  0  0  0  0
   -1.4102   -2.4288   -3.0116 H   0  0  0  0  0  0
   -1.1669   -0.0873   -1.6892 H   0  0  0  0  0  0
   -2.6929   -0.6734   -2.2917 H   0  0  0  0  0  0
   -3.4522   -1.4994   -0.2836 H   0  0  0  0  0  0
   -4.8288   -0.3086    1.1304 H   0  0  0  0  0  0
   -5.5484    1.8641    2.0336 H   0  0  0  0  0  0
   -4.0745    3.8500    1.8426 H   0  0  0  0  0  0
   -1.8495    3.6379    0.7703 H   0  0  0  0  0  0
   -1.1046    1.4882   -0.1383 H   0  0  0  0  0  0
    5.9378    1.1907    1.9050 H   0  0  0  0  0  0
   -1.4284   -3.2154    0.3614 N   0  3  0  0  0  0
   -0.4585   -3.4816    0.5679 H   0  0  0  0  0  0
   -2.0692   -3.8324    0.8742 H   0  0  0  0  0  0
  1  2  1  0  0  0
  1 26  1  0  0  0
  1 27  1  0  0  0
  1 28  1  0  0  0
  2  3  2  0  0  0
  2 24  1  0  0  0
  3  4  1  0  0  0
  3 29  1  0  0  0
  4  5  1  0  0  0
  4 21  2  0  0  0
  5  6  2  0  0  0
  5 20  1  0  0  0
  6  7  1  0  0  0
  7  8  1  0  0  0
  8  9  1  0  0  0
  8 20  2  0  0  0
  9 13  1  0  0  0
  9 30  1  0  0  0
  9 44  1  0  0  0
 10 11  1  0  0  0
 10 31  1  0  0  0
 10 32  1  0  0  0
 10 44  1  0  0  0
 11 12  1  0  0  0
 11 33  1  0  0  0
 11 34  1  0  0  0
 12 13  1  0  0  0
 12 35  1  0  0  0
 12 36  1  0  0  0
 13 14  1  0  0  0
 13 37  1  0  0  0
 14 15  2  0  0  0
 14 19  1  0  0  0
 15 16  1  0  0  0
 15 38  1  0  0  0
 16 17  2  0  0  0
 16 39  1  0  0  0
 17 18  1  0  0  0
 17 40  1  0  0  0
 18 19  2  0  0  0
 18 41  1  0  0  0
 19 42  1  0  0  0
 21 22  1  0  0  0
 21 23  1  0  0  0
 23 24  2  0  0  0
 23 43  1  0  0  0
 24 25  1  0  0  0
 44 45  1  0  0  0
 44 46  1  0  0  0
M  CHG  1  44   1
M  END
> <energy>
84.834

> <i_ionizer_Ion_state_n>
1

> <i_ionizer_Tot_Q>
1

> <s_ionizer_Ion_centers>
44

> <s_ionizer_Ion_types>
N5

> <s_ionizer_Ion_ctrs_in>
10

> <r_ionizer_Ionization_penalty>
0.000148807

> <r_ionizer_Ionization_penalty_charging>
0.000148807

> <r_ionizer_Ionization_penalty_neutral>
0

$$$$
ZINC001211869655
                    3D
 Schrodinger Suite 2019-4.
 47 50  0  0  1  0            999 V2000
    6.5158    3.1013   -0.8167 C   0  0  0  0  0  0
    6.4569    1.6936   -0.6210 O   0  0  0  0  0  0
    5.2282    1.1636   -0.3395 C   0  0  0  0  0  0
    4.0064    1.8289   -0.4435 C   0  0  0  0  0  0
    2.8180    1.1643   -0.1197 C   0  0  0  0  0  0
    2.8383   -0.1705    0.3158 C   0  0  0  0  0  0
    1.5801   -0.8032    0.6557 C   0  0  0  0  0  0
    1.2487   -1.1758    1.9012 N   0  0  0  0  0  0
   -0.0497   -1.6618    1.7606 O   0  0  0  0  0  0
   -0.3760   -1.5237    0.4415 C   0  0  0  0  0  0
   -1.7338   -2.0209    0.0386 C   0  0  1  0  0  0
   -3.0997   -2.8773   -1.7964 C   0  0  0  0  0  0
   -4.2184   -2.8317   -0.7476 C   0  0  0  0  0  0
   -4.2503   -1.4878   -0.0278 C   0  0  0  0  0  0
   -2.8939   -1.1767    0.6556 C   0  0  2  0  0  0
   -2.6787    0.3321    0.7080 C   0  0  0  0  0  0
   -2.8277    1.0169    1.9236 C   0  0  0  0  0  0
   -2.6323    2.3979    1.9918 C   0  0  0  0  0  0
   -2.2893    3.1133    0.8472 C   0  0  0  0  0  0
   -2.1460    2.4492   -0.3683 C   0  0  0  0  0  0
   -2.3410    1.0682   -0.4380 C   0  0  0  0  0  0
    0.5966   -1.0098   -0.2822 N   0  0  0  0  0  0
    4.0649   -0.8397    0.3981 C   0  0  0  0  0  0
    4.1898   -2.5000    0.8663 Cl  0  0  0  0  0  0
    5.2499   -0.1726    0.0689 C   0  0  0  0  0  0
    7.5681    3.3786   -0.9292 H   0  0  0  0  0  0
    6.1201    3.6404    0.0512 H   0  0  0  0  0  0
    5.9953    3.3920   -1.7347 H   0  0  0  0  0  0
    3.9413    2.8598   -0.7771 H   0  0  0  0  0  0
    1.8701    1.6953   -0.2043 H   0  0  0  0  0  0
   -1.7964   -3.0402    0.4481 H   0  0  0  0  0  0
   -2.8467   -3.9257   -1.9936 H   0  0  0  0  0  0
   -3.4685   -2.4590   -2.7397 H   0  0  0  0  0  0
   -5.1839   -3.0233   -1.2288 H   0  0  0  0  0  0
   -4.0702   -3.6319   -0.0114 H   0  0  0  0  0  0
   -4.5184   -0.7123   -0.7572 H   0  0  0  0  0  0
   -5.0490   -1.4829    0.7242 H   0  0  0  0  0  0
   -2.9806   -1.5268    1.6955 H   0  0  0  0  0  0
   -3.0953    0.4808    2.8316 H   0  0  0  0  0  0
   -2.7470    2.9154    2.9405 H   0  0  0  0  0  0
   -2.1361    4.1875    0.9011 H   0  0  0  0  0  0
   -1.8824    3.0026   -1.2652 H   0  0  0  0  0  0
   -2.2231    0.5704   -1.3990 H   0  0  0  0  0  0
    6.2035   -0.6918    0.1316 H   0  0  0  0  0  0
   -1.8806   -2.1312   -1.4377 N   0  3  0  0  0  0
   -1.9341   -1.1883   -1.8406 H   0  0  0  0  0  0
   -1.0633   -2.6209   -1.8202 H   0  0  0  0  0  0
  1  2  1  0  0  0
  1 26  1  0  0  0
  1 27  1  0  0  0
  1 28  1  0  0  0
  2  3  1  0  0  0
  3  4  2  0  0  0
  3 25  1  0  0  0
  4  5  1  0  0  0
  4 29  1  0  0  0
  5  6  2  0  0  0
  5 30  1  0  0  0
  6  7  1  0  0  0
  6 23  1  0  0  0
  7  8  2  0  0  0
  7 22  1  0  0  0
  8  9  1  0  0  0
  9 10  1  0  0  0
 10 11  1  0  0  0
 10 22  2  0  0  0
 11 15  1  0  0  0
 11 31  1  0  0  0
 11 45  1  0  0  0
 12 13  1  0  0  0
 12 32  1  0  0  0
 12 33  1  0  0  0
 12 45  1  0  0  0
 13 14  1  0  0  0
 13 34  1  0  0  0
 13 35  1  0  0  0
 14 15  1  0  0  0
 14 36  1  0  0  0
 14 37  1  0  0  0
 15 16  1  0  0  0
 15 38  1  0  0  0
 16 17  2  0  0  0
 16 21  1  0  0  0
 17 18  1  0  0  0
 17 39  1  0  0  0
 18 19  2  0  0  0
 18 40  1  0  0  0
 19 20  1  0  0  0
 19 41  1  0  0  0
 20 21  2  0  0  0
 20 42  1  0  0  0
 21 43  1  0  0  0
 23 24  1  0  0  0
 23 25  2  0  0  0
 25 44  1  0  0  0
 45 46  1  0  0  0
 45 47  1  0  0  0
M  CHG  1  45   1
M  END
> <energy>
99.3982

> <i_ionizer_Ion_state_n>
1

> <i_ionizer_Tot_Q>
1

> <s_ionizer_Ion_centers>
45

> <s_ionizer_Ion_types>
N5

> <s_ionizer_Ion_ctrs_in>
12

> <r_ionizer_Ionization_penalty>
0.000148807

> <r_ionizer_Ionization_penalty_charging>
0.000148807

> <r_ionizer_Ionization_penalty_neutral>
0

$$$$
ZINC001211869656
                    3D
 Schrodinger Suite 2019-4.
 47 50  0  0  1  0            999 V2000
    4.0740   -3.9895    1.1271 C   0  0  0  0  0  0
    4.7773   -3.2633    2.1446 O   0  0  0  0  0  0
    4.1955   -2.0297    2.2699 C   0  0  0  0  0  0
    2.9695   -1.9003    2.9081 C   0  0  0  0  0  0
    2.2750   -0.7033    2.7809 C   0  0  0  0  0  0
    2.7917    0.3629    2.0158 C   0  0  0  0  0  0
    1.8218    1.3601    1.5609 C   0  0  0  0  0  0
    2.0859    2.5569    1.0143 N   0  0  0  0  0  0
    0.8781    2.9288    0.4235 O   0  0  0  0  0  0
   -0.0138    1.9282    0.6877 C   0  0  0  0  0  0
   -1.2799    1.9007   -0.1315 C   0  0  1  0  0  0
   -3.0895    1.8558    1.5169 C   0  0  0  0  0  0
   -3.7038    0.6047    0.9104 C   0  0  0  0  0  0
   -2.6205   -0.3010    0.3354 C   0  0  0  0  0  0
   -1.5893    0.4183   -0.5630 C   0  0  1  0  0  0
   -1.8319    0.3170   -2.0671 C   0  0  0  0  0  0
   -3.0972    0.3561   -2.6541 C   0  0  0  0  0  0
   -3.2329    0.2844   -4.0468 C   0  0  0  0  0  0
   -2.1102    0.1705   -4.8672 C   0  0  0  0  0  0
   -0.8429    0.1281   -4.2955 C   0  0  0  0  0  0
   -0.7073    0.1997   -2.9092 C   0  0  0  0  0  0
    0.4899    0.9933    1.4647 N   0  0  0  0  0  0
    4.1151    0.2706    1.5473 C   0  0  0  0  0  0
    4.9384    1.5329    0.6995 Cl  0  0  0  0  0  0
    4.8192   -0.9357    1.6760 C   0  0  0  0  0  0
    3.1250   -4.3841    1.5101 H   0  0  0  0  0  0
    3.8819   -3.3704    0.2409 H   0  0  0  0  0  0
    4.6934   -4.8328    0.8140 H   0  0  0  0  0  0
    2.5172   -2.7421    3.4233 H   0  0  0  0  0  0
    1.2767   -0.6312    3.2096 H   0  0  0  0  0  0
   -1.0367    2.4847   -1.0338 H   0  0  0  0  0  0
   -3.8851    2.4691    1.9585 H   0  0  0  0  0  0
   -2.4104    1.5924    2.3384 H   0  0  0  0  0  0
   -4.4249    0.8753    0.1329 H   0  0  0  0  0  0
   -4.2660    0.0667    1.6814 H   0  0  0  0  0  0
   -3.0706   -1.1537   -0.1836 H   0  0  0  0  0  0
   -2.0734   -0.7270    1.1895 H   0  0  0  0  0  0
   -0.6739   -0.1779   -0.4198 H   0  0  0  0  0  0
   -3.9988    0.4285   -2.0530 H   0  0  0  0  0  0
   -4.2228    0.3234   -4.4934 H   0  0  0  0  0  0
   -2.2223    0.1103   -5.9460 H   0  0  0  0  0  0
    0.0405    0.0478   -4.9237 H   0  0  0  0  0  0
    0.2981    0.1535   -2.4931 H   0  0  0  0  0  0
    5.8118   -1.0574    1.2454 H   0  0  0  0  0  0
   -2.4074    2.6558    0.4900 N   0  3  0  0  0  0
   -2.0382    3.5102    0.9234 H   0  0  0  0  0  0
   -3.0836    2.9073   -0.2406 H   0  0  0  0  0  0
  1  2  1  0  0  0
  1 26  1  0  0  0
  1 27  1  0  0  0
  1 28  1  0  0  0
  2  3  1  0  0  0
  3  4  2  0  0  0
  3 25  1  0  0  0
  4  5  1  0  0  0
  4 29  1  0  0  0
  5  6  2  0  0  0
  5 30  1  0  0  0
  6  7  1  0  0  0
  6 23  1  0  0  0
  7  8  2  0  0  0
  7 22  1  0  0  0
  8  9  1  0  0  0
  9 10  1  0  0  0
 10 11  1  0  0  0
 10 22  2  0  0  0
 11 15  1  0  0  0
 11 31  1  0  0  0
 11 45  1  0  0  0
 12 13  1  0  0  0
 12 32  1  0  0  0
 12 33  1  0  0  0
 12 45  1  0  0  0
 13 14  1  0  0  0
 13 34  1  0  0  0
 13 35  1  0  0  0
 14 15  1  0  0  0
 14 36  1  0  0  0
 14 37  1  0  0  0
 15 16  1  0  0  0
 15 38  1  0  0  0
 16 17  2  0  0  0
 16 21  1  0  0  0
 17 18  1  0  0  0
 17 39  1  0  0  0
 18 19  2  0  0  0
 18 40  1  0  0  0
 19 20  1  0  0  0
 19 41  1  0  0  0
 20 21  2  0  0  0
 20 42  1  0  0  0
 21 43  1  0  0  0
 23 24  1  0  0  0
 23 25  2  0  0  0
 25 44  1  0  0  0
 45 46  1  0  0  0
 45 47  1  0  0  0
M  CHG  1  45   1
M  END
> <energy>
110.14

> <i_ionizer_Ion_state_n>
1

> <i_ionizer_Tot_Q>
1

> <s_ionizer_Ion_centers>
45

> <s_ionizer_Ion_types>
N5

> <s_ionizer_Ion_ctrs_in>
12

> <r_ionizer_Ionization_penalty>
0.000148807

> <r_ionizer_Ionization_penalty_charging>
0.000148807

> <r_ionizer_Ionization_penalty_neutral>
0

$$$$
ZINC001211869657
                    3D
 Schrodinger Suite 2019-4.
 47 50  0  0  1  0            999 V2000
    6.8016   -2.7169    0.2014 C   0  0  0  0  0  0
    6.6658   -1.3299   -0.0934 O   0  0  0  0  0  0
    5.4668   -0.7444    0.2152 C   0  0  0  0  0  0
    5.2657    0.5283   -0.3302 C   0  0  0  0  0  0
    4.0643    1.2191   -0.1228 C   0  0  0  0  0  0
    3.0342    0.6391    0.6265 C   0  0  0  0  0  0
    1.7471    1.3045    0.6991 C   0  0  0  0  0  0
    1.5301    2.4868    1.2917 N   0  0  0  0  0  0
    0.1536    2.6907    1.1172 O   0  0  0  0  0  0
   -0.3120    1.6275    0.3897 C   0  0  0  0  0  0
   -1.8049    1.5556    0.1243 C   0  0  2  0  0  0
   -2.2716    2.8514   -1.8983 C   0  0  0  0  0  0
   -3.1703    1.7752   -2.4846 C   0  0  0  0  0  0
   -2.7096    0.3813   -2.0862 C   0  0  0  0  0  0
   -2.1588    0.2364   -0.6516 C   0  0  2  0  0  0
   -2.9941   -0.6877    0.2267 C   0  0  0  0  0  0
   -2.3286   -1.6425    1.0156 C   0  0  0  0  0  0
   -3.0432   -2.5035    1.8417 C   0  0  0  0  0  0
   -4.4303   -2.4184    1.8953 C   0  0  0  0  0  0
   -5.0999   -1.4565    1.1413 C   0  0  0  0  0  0
   -4.3883   -0.5875    0.3134 C   0  0  0  0  0  0
    0.6402    0.7627    0.0910 N   0  0  0  0  0  0
    3.2573   -0.6159    1.2184 C   0  0  0  0  0  0
    2.0802   -1.3792    2.2361 Cl  0  0  0  0  0  0
    4.4664   -1.3045    1.0100 C   0  0  0  0  0  0
    7.7294   -3.0729   -0.2630 H   0  0  0  0  0  0
    5.9815   -3.3100   -0.2206 H   0  0  0  0  0  0
    6.8972   -2.8862    1.2798 H   0  0  0  0  0  0
    6.0369    0.9827   -0.9493 H   0  0  0  0  0  0
    3.9282    2.2031   -0.5640 H   0  0  0  0  0  0
   -2.2494    1.5066    1.1313 H   0  0  0  0  0  0
   -2.6113    3.8346   -2.2467 H   0  0  0  0  0  0
   -1.2348    2.7283   -2.2358 H   0  0  0  0  0  0
   -3.1687    1.8489   -3.5813 H   0  0  0  0  0  0
   -4.2104    1.9243   -2.1628 H   0  0  0  0  0  0
   -1.9036    0.1125   -2.7783 H   0  0  0  0  0  0
   -3.5046   -0.3442   -2.3096 H   0  0  0  0  0  0
   -1.2355   -0.3326   -0.8264 H   0  0  0  0  0  0
   -1.2423   -1.7230    0.9832 H   0  0  0  0  0  0
   -2.5158   -3.2422    2.4364 H   0  0  0  0  0  0
   -4.9917   -3.1009    2.5290 H   0  0  0  0  0  0
   -6.1806   -1.3874    1.1942 H   0  0  0  0  0  0
   -4.9307    0.1532   -0.2673 H   0  0  0  0  0  0
    4.6012   -2.2746    1.4775 H   0  0  0  0  0  0
   -2.3489    2.8311   -0.4330 N   0  3  0  0  0  0
   -3.3308    2.9279   -0.1491 H   0  0  0  0  0  0
   -1.8053    3.6178   -0.0591 H   0  0  0  0  0  0
  1  2  1  0  0  0
  1 26  1  0  0  0
  1 27  1  0  0  0
  1 28  1  0  0  0
  2  3  1  0  0  0
  3  4  2  0  0  0
  3 25  1  0  0  0
  4  5  1  0  0  0
  4 29  1  0  0  0
  5  6  2  0  0  0
  5 30  1  0  0  0
  6  7  1  0  0  0
  6 23  1  0  0  0
  7  8  2  0  0  0
  7 22  1  0  0  0
  8  9  1  0  0  0
  9 10  1  0  0  0
 10 11  1  0  0  0
 10 22  2  0  0  0
 11 15  1  0  0  0
 11 31  1  0  0  0
 11 45  1  0  0  0
 12 13  1  0  0  0
 12 32  1  0  0  0
 12 33  1  0  0  0
 12 45  1  0  0  0
 13 14  1  0  0  0
 13 34  1  0  0  0
 13 35  1  0  0  0
 14 15  1  0  0  0
 14 36  1  0  0  0
 14 37  1  0  0  0
 15 16  1  0  0  0
 15 38  1  0  0  0
 16 17  2  0  0  0
 16 21  1  0  0  0
 17 18  1  0  0  0
 17 39  1  0  0  0
 18 19  2  0  0  0
 18 40  1  0  0  0
 19 20  1  0  0  0
 19 41  1  0  0  0
 20 21  2  0  0  0
 20 42  1  0  0  0
 21 43  1  0  0  0
 23 24  1  0  0  0
 23 25  2  0  0  0
 25 44  1  0  0  0
 45 46  1  0  0  0
 45 47  1  0  0  0
M  CHG  1  45   1
M  END
> <energy>
103.47

> <i_ionizer_Ion_state_n>
1

> <i_ionizer_Tot_Q>
1

> <s_ionizer_Ion_centers>
45

> <s_ionizer_Ion_types>
N5

> <s_ionizer_Ion_ctrs_in>
12

> <r_ionizer_Ionization_penalty>
0.000148807

> <r_ionizer_Ionization_penalty_charging>
0.000148807

> <r_ionizer_Ionization_penalty_neutral>
0

$$$$
ZINC001211869658
                    3D
 Schrodinger Suite 2019-4.
 47 50  0  0  1  0            999 V2000
    6.4700    1.6167   -1.0597 C   0  0  0  0  0  0
    6.3085    0.9210    0.1753 O   0  0  0  0  0  0
    5.0436    0.4471    0.3841 C   0  0  0  0  0  0
    3.8909    1.1896    0.1636 C   0  0  0  0  0  0
    2.6386    0.6096    0.3951 C   0  0  0  0  0  0
    2.5168   -0.7189    0.8448 C   0  0  0  0  0  0
    1.1696   -1.2783    0.9434 C   0  0  0  0  0  0
    0.8428   -2.5425    0.6338 N   0  0  0  0  0  0
   -0.5456   -2.5702    0.7394 O   0  0  0  0  0  0
   -0.9340   -1.3061    1.0778 C   0  0  0  0  0  0
   -2.4144   -1.0616    1.1978 C   0  0  2  0  0  0
   -3.6033    0.4329    2.7783 C   0  0  0  0  0  0
   -3.0659    1.6823    2.0725 C   0  0  0  0  0  0
   -2.5585    1.4156    0.6549 C   0  0  0  0  0  0
   -2.9314   -0.0013    0.1773 C   0  0  1  0  0  0
   -2.5793   -0.2585   -1.2832 C   0  0  0  0  0  0
   -3.5247   -0.8470   -2.1412 C   0  0  0  0  0  0
   -3.2520   -1.0173   -3.5025 C   0  0  0  0  0  0
   -2.0228   -0.6204   -4.0198 C   0  0  0  0  0  0
   -1.0547   -0.0895   -3.1714 C   0  0  0  0  0  0
   -1.3361    0.1018   -1.8179 C   0  0  0  0  0  0
    0.0805   -0.4796    1.2186 N   0  0  0  0  0  0
    3.6915   -1.4287    1.1342 C   0  0  0  0  0  0
    3.6981   -3.0154    1.8207 Cl  0  0  0  0  0  0
    4.9436   -0.8404    0.9026 C   0  0  0  0  0  0
    6.0110    1.0793   -1.8976 H   0  0  0  0  0  0
    6.0712    2.6319   -0.9889 H   0  0  0  0  0  0
    7.5416    1.6986   -1.2649 H   0  0  0  0  0  0
    3.9407    2.2176   -0.1814 H   0  0  0  0  0  0
    1.7469    1.2063    0.2124 H   0  0  0  0  0  0
   -2.9340   -2.0011    0.9635 H   0  0  0  0  0  0
   -3.7067    0.6461    3.8467 H   0  0  0  0  0  0
   -4.6113    0.1960    2.4171 H   0  0  0  0  0  0
   -3.8638    2.4320    2.0404 H   0  0  0  0  0  0
   -2.2547    2.1265    2.6606 H   0  0  0  0  0  0
   -1.4699    1.5520    0.6568 H   0  0  0  0  0  0
   -2.9439    2.1739   -0.0344 H   0  0  0  0  0  0
   -4.0341   -0.0425    0.2176 H   0  0  0  0  0  0
   -4.4989   -1.1537   -1.7690 H   0  0  0  0  0  0
   -4.0012   -1.4500   -4.1607 H   0  0  0  0  0  0
   -1.8158   -0.7316   -5.0810 H   0  0  0  0  0  0
   -0.0822    0.1937   -3.5635 H   0  0  0  0  0  0
   -0.5650    0.5427   -1.1888 H   0  0  0  0  0  0
    5.8551   -1.3930    1.1190 H   0  0  0  0  0  0
   -2.7224   -0.7441    2.6360 N   0  3  0  0  0  0
   -3.1862   -1.5557    3.0608 H   0  0  0  0  0  0
   -1.8410   -0.5571    3.1284 H   0  0  0  0  0  0
  1  2  1  0  0  0
  1 26  1  0  0  0
  1 27  1  0  0  0
  1 28  1  0  0  0
  2  3  1  0  0  0
  3  4  2  0  0  0
  3 25  1  0  0  0
  4  5  1  0  0  0
  4 29  1  0  0  0
  5  6  2  0  0  0
  5 30  1  0  0  0
  6  7  1  0  0  0
  6 23  1  0  0  0
  7  8  2  0  0  0
  7 22  1  0  0  0
  8  9  1  0  0  0
  9 10  1  0  0  0
 10 11  1  0  0  0
 10 22  2  0  0  0
 11 15  1  0  0  0
 11 31  1  0  0  0
 11 45  1  0  0  0
 12 13  1  0  0  0
 12 32  1  0  0  0
 12 33  1  0  0  0
 12 45  1  0  0  0
 13 14  1  0  0  0
 13 34  1  0  0  0
 13 35  1  0  0  0
 14 15  1  0  0  0
 14 36  1  0  0  0
 14 37  1  0  0  0
 15 16  1  0  0  0
 15 38  1  0  0  0
 16 17  2  0  0  0
 16 21  1  0  0  0
 17 18  1  0  0  0
 17 39  1  0  0  0
 18 19  2  0  0  0
 18 40  1  0  0  0
 19 20  1  0  0  0
 19 41  1  0  0  0
 20 21  2  0  0  0
 20 42  1  0  0  0
 21 43  1  0  0  0
 23 24  1  0  0  0
 23 25  2  0  0  0
 25 44  1  0  0  0
 45 46  1  0  0  0
 45 47  1  0  0  0
M  CHG  1  45   1
M  END
> <energy>
101.208

> <i_ionizer_Ion_state_n>
1

> <i_ionizer_Tot_Q>
1

> <s_ionizer_Ion_centers>
45

> <s_ionizer_Ion_types>
N5

> <s_ionizer_Ion_ctrs_in>
12

> <r_ionizer_Ionization_penalty>
0.000148807

> <r_ionizer_Ionization_penalty_charging>
0.000148807

> <r_ionizer_Ionization_penalty_neutral>
0

$$$$
ZINC001211869683
                    3D
 Schrodinger Suite 2019-4.
 46 49  0  0  1  0            999 V2000
   -3.0237    0.2048   -2.2294 C   0  0  0  0  0  0
   -3.7385    0.0732   -0.9121 C   0  0  0  0  0  0
   -5.0011    0.6923   -0.7843 C   0  0  0  0  0  0
   -5.7115    0.6170    0.4095 C   0  0  0  0  0  0
   -6.8995    1.2257    0.5093 F   0  0  0  0  0  0
   -5.1915   -0.0841    1.4825 C   0  0  0  0  0  0
   -5.8750   -0.1650    2.6319 F   0  0  0  0  0  0
   -3.9492   -0.6996    1.3830 C   0  0  0  0  0  0
   -3.1904   -0.6170    0.1955 C   0  0  0  0  0  0
   -1.8454   -1.2071    0.2055 C   0  0  0  0  0  0
   -1.4651   -2.1208    1.1162 N   0  0  0  0  0  0
   -0.1030   -2.2624    0.9051 O   0  0  0  0  0  0
    0.2230   -1.4317   -0.1273 C   0  0  0  0  0  0
    1.6928   -1.3016   -0.4408 C   0  0  1  0  0  0
    3.7835   -2.5851   -0.5789 C   0  0  0  0  0  0
    4.4030   -1.7736    0.5527 C   0  0  0  0  0  0
    3.8768   -0.3452    0.5368 C   0  0  0  0  0  0
    2.3379   -0.3213    0.5873 C   0  0  1  0  0  0
    1.8193    1.1064    0.4252 C   0  0  0  0  0  0
    2.1533    1.8919   -0.6893 C   0  0  0  0  0  0
    1.6625    3.1922   -0.8210 C   0  0  0  0  0  0
    0.8217    3.7238    0.1533 C   0  0  0  0  0  0
    0.4597    2.9492    1.2516 C   0  0  0  0  0  0
    0.9539    1.6499    1.3885 C   0  0  0  0  0  0
   -0.8196   -0.7981   -0.6231 N   0  0  0  0  0  0
   -3.7023    0.5591   -3.0136 H   0  0  0  0  0  0
   -2.2064    0.9266   -2.1502 H   0  0  0  0  0  0
   -2.6413   -0.7641   -2.5637 H   0  0  0  0  0  0
   -5.4434    1.2450   -1.6088 H   0  0  0  0  0  0
   -3.5718   -1.2231    2.2588 H   0  0  0  0  0  0
    1.7889   -0.8838   -1.4507 H   0  0  0  0  0  0
    4.0624   -2.1670   -1.5532 H   0  0  0  0  0  0
    4.1748   -3.6091   -0.5430 H   0  0  0  0  0  0
    4.1777   -2.2414    1.5206 H   0  0  0  0  0  0
    5.4948   -1.7625    0.4503 H   0  0  0  0  0  0
    4.2837    0.2057    1.3938 H   0  0  0  0  0  0
    4.2546    0.1539   -0.3626 H   0  0  0  0  0  0
    2.0657   -0.6671    1.5966 H   0  0  0  0  0  0
    2.7997    1.5028   -1.4732 H   0  0  0  0  0  0
    1.9357    3.7917   -1.6837 H   0  0  0  0  0  0
    0.4439    4.7376    0.0535 H   0  0  0  0  0  0
   -0.2118    3.3543    2.0044 H   0  0  0  0  0  0
    0.6503    1.0609    2.2503 H   0  0  0  0  0  0
    2.3192   -2.6625   -0.4455 N   0  3  0  0  0  0
    2.0898   -3.1382    0.4350 H   0  0  0  0  0  0
    1.9411   -3.2008   -1.2339 H   0  0  0  0  0  0
  1  2  1  0  0  0
  1 26  1  0  0  0
  1 27  1  0  0  0
  1 28  1  0  0  0
  2  3  2  0  0  0
  2  9  1  0  0  0
  3  4  1  0  0  0
  3 29  1  0  0  0
  4  5  1  0  0  0
  4  6  2  0  0  0
  6  7  1  0  0  0
  6  8  1  0  0  0
  8  9  2  0  0  0
  8 30  1  0  0  0
  9 10  1  0  0  0
 10 11  2  0  0  0
 10 25  1  0  0  0
 11 12  1  0  0  0
 12 13  1  0  0  0
 13 14  1  0  0  0
 13 25  2  0  0  0
 14 18  1  0  0  0
 14 31  1  0  0  0
 14 44  1  0  0  0
 15 16  1  0  0  0
 15 32  1  0  0  0
 15 33  1  0  0  0
 15 44  1  0  0  0
 16 17  1  0  0  0
 16 34  1  0  0  0
 16 35  1  0  0  0
 17 18  1  0  0  0
 17 36  1  0  0  0
 17 37  1  0  0  0
 18 19  1  0  0  0
 18 38  1  0  0  0
 19 20  2  0  0  0
 19 24  1  0  0  0
 20 21  1  0  0  0
 20 39  1  0  0  0
 21 22  2  0  0  0
 21 40  1  0  0  0
 22 23  1  0  0  0
 22 41  1  0  0  0
 23 24  2  0  0  0
 23 42  1  0  0  0
 24 43  1  0  0  0
 44 45  1  0  0  0
 44 46  1  0  0  0
M  CHG  1  44   1
M  END
> <energy>
94.3965

> <i_ionizer_Ion_state_n>
1

> <i_ionizer_Tot_Q>
1

> <s_ionizer_Ion_centers>
44

> <s_ionizer_Ion_types>
N5

> <s_ionizer_Ion_ctrs_in>
15

> <r_ionizer_Ionization_penalty>
0.000148807

> <r_ionizer_Ionization_penalty_charging>
0.000148807

> <r_ionizer_Ionization_penalty_neutral>
0

$$$$
ZINC001211869684
                    3D
 Schrodinger Suite 2019-4.
 46 49  0  0  1  0            999 V2000
   -3.5289   -0.2490   -0.6075 C   0  0  0  0  0  0
   -3.7792   -1.5675    0.0763 C   0  0  0  0  0  0
   -5.0410   -2.1727   -0.1101 C   0  0  0  0  0  0
   -5.3612   -3.3658    0.5317 C   0  0  0  0  0  0
   -6.5831   -3.8867    0.3858 F   0  0  0  0  0  0
   -4.4104   -3.9956    1.3123 C   0  0  0  0  0  0
   -4.6984   -5.1671    1.9002 F   0  0  0  0  0  0
   -3.1583   -3.4313    1.5084 C   0  0  0  0  0  0
   -2.8315   -2.1920    0.9207 C   0  0  0  0  0  0
   -1.5606   -1.5765    1.2941 C   0  0  0  0  0  0
   -1.1740   -1.4544    2.5745 N   0  0  0  0  0  0
    0.0615   -0.8177    2.4933 O   0  0  0  0  0  0
    0.3028   -0.6008    1.1624 C   0  0  0  0  0  0
    1.5613    0.1811    0.8210 C   0  0  2  0  0  0
    2.8083   -1.6223   -0.2211 C   0  0  0  0  0  0
    2.9279   -0.9148   -1.5727 C   0  0  0  0  0  0
    1.8321    0.1345   -1.7825 C   0  0  0  0  0  0
    1.3920    0.9356   -0.5279 C   0  0  2  0  0  0
    1.9406    2.3574   -0.4360 C   0  0  0  0  0  0
    1.0131    3.4138   -0.3159 C   0  0  0  0  0  0
    1.4274    4.7397   -0.1897 C   0  0  0  0  0  0
    2.7859    5.0308   -0.1821 C   0  0  0  0  0  0
    3.7170    4.0012   -0.2913 C   0  0  0  0  0  0
    3.3063    2.6692   -0.4185 C   0  0  0  0  0  0
   -0.6637   -1.0530    0.3829 N   0  0  0  0  0  0
   -2.6480   -0.3224   -1.2450 H   0  0  0  0  0  0
   -3.4064    0.5470    0.1289 H   0  0  0  0  0  0
   -4.3692    0.0323   -1.2523 H   0  0  0  0  0  0
   -5.7974   -1.7228   -0.7460 H   0  0  0  0  0  0
   -2.4439   -3.9540    2.1403 H   0  0  0  0  0  0
    1.6659    0.9164    1.6342 H   0  0  0  0  0  0
    1.9111   -2.2517   -0.1698 H   0  0  0  0  0  0
    3.6515   -2.2999   -0.0467 H   0  0  0  0  0  0
    3.9225   -0.4560   -1.6820 H   0  0  0  0  0  0
    2.8505   -1.6588   -2.3781 H   0  0  0  0  0  0
    2.1202    0.8001   -2.6053 H   0  0  0  0  0  0
    0.9489   -0.4188   -2.1356 H   0  0  0  0  0  0
    0.3143    1.0770   -0.6916 H   0  0  0  0  0  0
   -0.0582    3.2058   -0.2940 H   0  0  0  0  0  0
    0.6934    5.5333   -0.0872 H   0  0  0  0  0  0
    3.1126    6.0618   -0.0883 H   0  0  0  0  0  0
    4.7799    4.2403   -0.2573 H   0  0  0  0  0  0
    4.0673    1.8967   -0.4799 H   0  0  0  0  0  0
    2.8142   -0.6266    0.8579 N   0  3  0  0  0  0
    3.6224   -0.0043    0.7404 H   0  0  0  0  0  0
    2.8812   -1.1075    1.7626 H   0  0  0  0  0  0
  1  2  1  0  0  0
  1 26  1  0  0  0
  1 27  1  0  0  0
  1 28  1  0  0  0
  2  3  2  0  0  0
  2  9  1  0  0  0
  3  4  1  0  0  0
  3 29  1  0  0  0
  4  5  1  0  0  0
  4  6  2  0  0  0
  6  7  1  0  0  0
  6  8  1  0  0  0
  8  9  2  0  0  0
  8 30  1  0  0  0
  9 10  1  0  0  0
 10 11  2  0  0  0
 10 25  1  0  0  0
 11 12  1  0  0  0
 12 13  1  0  0  0
 13 14  1  0  0  0
 13 25  2  0  0  0
 14 18  1  0  0  0
 14 31  1  0  0  0
 14 44  1  0  0  0
 15 16  1  0  0  0
 15 32  1  0  0  0
 15 33  1  0  0  0
 15 44  1  0  0  0
 16 17  1  0  0  0
 16 34  1  0  0  0
 16 35  1  0  0  0
 17 18  1  0  0  0
 17 36  1  0  0  0
 17 37  1  0  0  0
 18 19  1  0  0  0
 18 38  1  0  0  0
 19 20  2  0  0  0
 19 24  1  0  0  0
 20 21  1  0  0  0
 20 39  1  0  0  0
 21 22  2  0  0  0
 21 40  1  0  0  0
 22 23  1  0  0  0
 22 41  1  0  0  0
 23 24  2  0  0  0
 23 42  1  0  0  0
 24 43  1  0  0  0
 44 45  1  0  0  0
 44 46  1  0  0  0
M  CHG  1  44   1
M  END
> <energy>
103.477

> <i_ionizer_Ion_state_n>
1

> <i_ionizer_Tot_Q>
1

> <s_ionizer_Ion_centers>
44

> <s_ionizer_Ion_types>
N5

> <s_ionizer_Ion_ctrs_in>
15

> <r_ionizer_Ionization_penalty>
0.000148807

> <r_ionizer_Ionization_penalty_charging>
0.000148807

> <r_ionizer_Ionization_penalty_neutral>
0

$$$$
ZINC001211869685
                    3D
 Schrodinger Suite 2019-4.
 46 49  0  0  1  0            999 V2000
   -3.0953   -2.2399   -0.1067 C   0  0  0  0  0  0
   -3.5185   -0.8518   -0.5076 C   0  0  0  0  0  0
   -4.5821   -0.7031   -1.4153 C   0  0  0  0  0  0
   -4.9952    0.5649   -1.8123 C   0  0  0  0  0  0
   -6.0043    0.6839   -2.6856 F   0  0  0  0  0  0
   -4.3666    1.6956   -1.3123 C   0  0  0  0  0  0
   -4.7635    2.9154   -1.6993 F   0  0  0  0  0  0
   -3.3096    1.5764   -0.4180 C   0  0  0  0  0  0
   -2.8666    0.3030   -0.0177 C   0  0  0  0  0  0
   -1.7097    0.2206    0.8611 C   0  0  0  0  0  0
   -1.5708    0.9527    1.9763 N   0  0  0  0  0  0
   -0.2853    0.6376    2.4144 O   0  0  0  0  0  0
    0.2295   -0.2457    1.5086 C   0  0  0  0  0  0
    1.6729   -0.6274    1.6956 C   0  0  2  0  0  0
    1.6103   -2.9915    1.0417 C   0  0  0  0  0  0
    2.5448   -2.7422   -0.1390 C   0  0  0  0  0  0
    2.3741   -1.3249   -0.6776 C   0  0  0  0  0  0
    2.5494   -0.2890    0.4500 C   0  0  1  0  0  0
    2.4059    1.1625    0.0034 C   0  0  0  0  0  0
    1.5424    1.5505   -1.0331 C   0  0  0  0  0  0
    1.4016    2.8947   -1.3851 C   0  0  0  0  0  0
    2.1201    3.8725   -0.7045 C   0  0  0  0  0  0
    2.9777    3.5073    0.3300 C   0  0  0  0  0  0
    3.1197    2.1635    0.6821 C   0  0  0  0  0  0
   -0.6216   -0.5614    0.5544 N   0  0  0  0  0  0
   -2.9605   -2.3076    0.9781 H   0  0  0  0  0  0
   -3.8596   -2.9764   -0.3776 H   0  0  0  0  0  0
   -2.1641   -2.5144   -0.6126 H   0  0  0  0  0  0
   -5.0981   -1.5683   -1.8230 H   0  0  0  0  0  0
   -2.8244    2.4784   -0.0533 H   0  0  0  0  0  0
    2.0474   -0.0158    2.5295 H   0  0  0  0  0  0
    1.7766   -4.0047    1.4268 H   0  0  0  0  0  0
    0.5652   -2.9605    0.7141 H   0  0  0  0  0  0
    2.3412   -3.4668   -0.9356 H   0  0  0  0  0  0
    3.5857   -2.8941    0.1716 H   0  0  0  0  0  0
    1.3842   -1.2518   -1.1404 H   0  0  0  0  0  0
    3.1065   -1.1410   -1.4726 H   0  0  0  0  0  0
    3.5972   -0.3993    0.7702 H   0  0  0  0  0  0
    0.9444    0.8205   -1.5720 H   0  0  0  0  0  0
    0.7236    3.1757   -2.1864 H   0  0  0  0  0  0
    2.0070    4.9184   -0.9767 H   0  0  0  0  0  0
    3.5329    4.2711    0.8681 H   0  0  0  0  0  0
    3.7915    1.9059    1.4989 H   0  0  0  0  0  0
    1.8478   -2.0435    2.1506 N   0  3  0  0  0  0
    2.8056   -2.1681    2.4988 H   0  0  0  0  0  0
    1.1808   -2.2378    2.9065 H   0  0  0  0  0  0
  1  2  1  0  0  0
  1 26  1  0  0  0
  1 27  1  0  0  0
  1 28  1  0  0  0
  2  3  2  0  0  0
  2  9  1  0  0  0
  3  4  1  0  0  0
  3 29  1  0  0  0
  4  5  1  0  0  0
  4  6  2  0  0  0
  6  7  1  0  0  0
  6  8  1  0  0  0
  8  9  2  0  0  0
  8 30  1  0  0  0
  9 10  1  0  0  0
 10 11  2  0  0  0
 10 25  1  0  0  0
 11 12  1  0  0  0
 12 13  1  0  0  0
 13 14  1  0  0  0
 13 25  2  0  0  0
 14 18  1  0  0  0
 14 31  1  0  0  0
 14 44  1  0  0  0
 15 16  1  0  0  0
 15 32  1  0  0  0
 15 33  1  0  0  0
 15 44  1  0  0  0
 16 17  1  0  0  0
 16 34  1  0  0  0
 16 35  1  0  0  0
 17 18  1  0  0  0
 17 36  1  0  0  0
 17 37  1  0  0  0
 18 19  1  0  0  0
 18 38  1  0  0  0
 19 20  2  0  0  0
 19 24  1  0  0  0
 20 21  1  0  0  0
 20 39  1  0  0  0
 21 22  2  0  0  0
 21 40  1  0  0  0
 22 23  1  0  0  0
 22 41  1  0  0  0
 23 24  2  0  0  0
 23 42  1  0  0  0
 24 43  1  0  0  0
 44 45  1  0  0  0
 44 46  1  0  0  0
M  CHG  1  44   1
M  END
> <energy>
94.7989

> <i_ionizer_Ion_state_n>
1

> <i_ionizer_Tot_Q>
1

> <s_ionizer_Ion_centers>
44

> <s_ionizer_Ion_types>
N5

> <s_ionizer_Ion_ctrs_in>
15

> <r_ionizer_Ionization_penalty>
0.000148807

> <r_ionizer_Ionization_penalty_charging>
0.000148807

> <r_ionizer_Ionization_penalty_neutral>
0

$$$$
ZINC001211869686
                    3D
 Schrodinger Suite 2019-4.
 46 49  0  0  1  0            999 V2000
   -3.9008    1.0966    2.5781 C   0  0  0  0  0  0
   -4.2375    1.1355    1.1101 C   0  0  0  0  0  0
   -5.5608    1.4511    0.7429 C   0  0  0  0  0  0
   -5.9314    1.4872   -0.5975 C   0  0  0  0  0  0
   -7.1966    1.7810   -0.9215 F   0  0  0  0  0  0
   -5.0000    1.2154   -1.5860 C   0  0  0  0  0  0
   -5.3606    1.2447   -2.8766 F   0  0  0  0  0  0
   -3.6873    0.9001   -1.2501 C   0  0  0  0  0  0
   -3.2834    0.8651    0.0971 C   0  0  0  0  0  0
   -1.8984    0.4989    0.3884 C   0  0  0  0  0  0
   -1.1392    1.0872    1.3251 N   0  0  0  0  0  0
    0.0526    0.3612    1.2868 O   0  0  0  0  0  0
   -0.1017   -0.5924    0.3186 C   0  0  0  0  0  0
    0.9971   -1.6119    0.1643 C   0  0  1  0  0  0
    2.5152   -3.1371    1.3472 C   0  0  0  0  0  0
    3.0170   -3.4299   -0.0680 C   0  0  0  0  0  0
    3.3182   -2.1429   -0.8225 C   0  0  0  0  0  0
    2.0768   -1.2154   -0.8888 C   0  0  2  0  0  0
    2.4960    0.2482   -0.9026 C   0  0  0  0  0  0
    2.1203    1.0584   -1.9870 C   0  0  0  0  0  0
    2.4922    2.4021   -2.0361 C   0  0  0  0  0  0
    3.2409    2.9574   -1.0023 C   0  0  0  0  0  0
    3.6174    2.1689    0.0823 C   0  0  0  0  0  0
    3.2449    0.8234    0.1335 C   0  0  0  0  0  0
   -1.2651   -0.5213   -0.2929 N   0  0  0  0  0  0
   -3.3551    0.1822    2.8342 H   0  0  0  0  0  0
   -3.3100    1.9755    2.8544 H   0  0  0  0  0  0
   -4.8097    1.1011    3.1901 H   0  0  0  0  0  0
   -6.3178    1.6619    1.4937 H   0  0  0  0  0  0
   -2.9817    0.6845   -2.0470 H   0  0  0  0  0  0
    0.4830   -2.5039   -0.2259 H   0  0  0  0  0  0
    2.0417   -4.0403    1.7452 H   0  0  0  0  0  0
    3.3721   -2.9293    1.9986 H   0  0  0  0  0  0
    2.2709   -4.0117   -0.6224 H   0  0  0  0  0  0
    3.9175   -4.0521   -0.0135 H   0  0  0  0  0  0
    3.6516   -2.3811   -1.8405 H   0  0  0  0  0  0
    4.1739   -1.6549   -0.3408 H   0  0  0  0  0  0
    1.6125   -1.4224   -1.8658 H   0  0  0  0  0  0
    1.5342    0.6506   -2.8078 H   0  0  0  0  0  0
    2.1967    3.0174   -2.8823 H   0  0  0  0  0  0
    3.5297    4.0046   -1.0388 H   0  0  0  0  0  0
    4.2032    2.6001    0.8897 H   0  0  0  0  0  0
    3.5621    0.2325    0.9886 H   0  0  0  0  0  0
    1.5645   -2.0147    1.4853 N   0  3  0  0  0  0
    2.0543   -1.2116    1.8969 H   0  0  0  0  0  0
    0.7974   -2.3017    2.1044 H   0  0  0  0  0  0
  1  2  1  0  0  0
  1 26  1  0  0  0
  1 27  1  0  0  0
  1 28  1  0  0  0
  2  3  2  0  0  0
  2  9  1  0  0  0
  3  4  1  0  0  0
  3 29  1  0  0  0
  4  5  1  0  0  0
  4  6  2  0  0  0
  6  7  1  0  0  0
  6  8  1  0  0  0
  8  9  2  0  0  0
  8 30  1  0  0  0
  9 10  1  0  0  0
 10 11  2  0  0  0
 10 25  1  0  0  0
 11 12  1  0  0  0
 12 13  1  0  0  0
 13 14  1  0  0  0
 13 25  2  0  0  0
 14 18  1  0  0  0
 14 31  1  0  0  0
 14 44  1  0  0  0
 15 16  1  0  0  0
 15 32  1  0  0  0
 15 33  1  0  0  0
 15 44  1  0  0  0
 16 17  1  0  0  0
 16 34  1  0  0  0
 16 35  1  0  0  0
 17 18  1  0  0  0
 17 36  1  0  0  0
 17 37  1  0  0  0
 18 19  1  0  0  0
 18 38  1  0  0  0
 19 20  2  0  0  0
 19 24  1  0  0  0
 20 21  1  0  0  0
 20 39  1  0  0  0
 21 22  2  0  0  0
 21 40  1  0  0  0
 22 23  1  0  0  0
 22 41  1  0  0  0
 23 24  2  0  0  0
 23 42  1  0  0  0
 24 43  1  0  0  0
 44 45  1  0  0  0
 44 46  1  0  0  0
M  CHG  1  44   1
M  END
> <energy>
104.749

> <i_ionizer_Ion_state_n>
1

> <i_ionizer_Tot_Q>
1

> <s_ionizer_Ion_centers>
44

> <s_ionizer_Ion_types>
N5

> <s_ionizer_Ion_ctrs_in>
15

> <r_ionizer_Ionization_penalty>
0.000148807

> <r_ionizer_Ionization_penalty_charging>
0.000148807

> <r_ionizer_Ionization_penalty_neutral>
0

$$$$
ZINC001211869717
                    3D
 Schrodinger Suite 2019-4.
 47 50  0  0  1  0            999 V2000
    5.7153    4.4765    3.1559 F   0  0  0  0  0  0
    4.7026    3.5855    3.3174 C   0  0  0  0  0  0
    3.6017    4.1700    2.7885 F   0  0  0  0  0  0
    5.0523    2.4225    2.5870 O   0  0  0  0  0  0
    4.1475    1.4045    2.4946 C   0  0  0  0  0  0
    2.9672    1.2716    3.2249 C   0  0  0  0  0  0
    2.1027    0.1956    2.9735 C   0  0  0  0  0  0
    2.3949   -0.7442    1.9730 C   0  0  0  0  0  0
    1.3605   -1.6414    1.4881 C   0  0  0  0  0  0
    0.4694   -2.2822    2.2677 N   0  0  0  0  0  0
   -0.5660   -2.5921    1.3808 O   0  0  0  0  0  0
   -0.1898   -2.1218    0.1539 C   0  0  0  0  0  0
   -1.2808   -1.9474   -0.8705 C   0  0  1  0  0  0
   -0.4296   -2.5833   -3.0873 C   0  0  0  0  0  0
   -0.9892   -1.3224   -3.7206 C   0  0  0  0  0  0
   -0.8745   -0.1460   -2.7714 C   0  0  0  0  0  0
   -1.2960   -0.4350   -1.3169 C   0  0  1  0  0  0
   -2.6110    0.2356   -0.9490 C   0  0  0  0  0  0
   -2.6461    1.1074    0.1498 C   0  0  0  0  0  0
   -3.8159    1.7917    0.4793 C   0  0  0  0  0  0
   -4.9765    1.5750   -0.2548 C   0  0  0  0  0  0
   -4.9699    0.6817   -1.3219 C   0  0  0  0  0  0
   -3.7893    0.0154   -1.6771 C   0  0  0  0  0  0
    1.0328   -1.6272    0.1528 N   0  0  0  0  0  0
    3.6233   -0.6571    1.3066 C   0  0  0  0  0  0
    4.4909    0.4108    1.5712 C   0  0  0  0  0  0
    4.5726    3.4091    4.3875 H   0  0  0  0  0  0
    2.6563    2.0047    3.9591 H   0  0  0  0  0  0
    1.1473    0.1432    3.4939 H   0  0  0  0  0  0
   -2.2122   -2.1370   -0.3116 H   0  0  0  0  0  0
   -0.4558   -3.3874   -3.8402 H   0  0  0  0  0  0
    0.6190   -2.4660   -2.7974 H   0  0  0  0  0  0
   -0.4566   -1.0879   -4.6488 H   0  0  0  0  0  0
   -2.0373   -1.4785   -4.0079 H   0  0  0  0  0  0
   -1.4201    0.7004   -3.2008 H   0  0  0  0  0  0
    0.1723    0.1641   -2.7391 H   0  0  0  0  0  0
   -0.5292    0.1082   -0.7311 H   0  0  0  0  0  0
   -1.7496    1.2701    0.7460 H   0  0  0  0  0  0
   -3.8191    2.4980    1.3053 H   0  0  0  0  0  0
   -5.8885    2.1179   -0.0142 H   0  0  0  0  0  0
   -5.8827    0.5102   -1.8881 H   0  0  0  0  0  0
   -3.8041   -0.6581   -2.5305 H   0  0  0  0  0  0
    3.8796   -1.3745    0.5254 H   0  0  0  0  0  0
    5.4186    0.4975    1.0037 H   0  0  0  0  0  0
   -1.2547   -2.9947   -1.9378 N   0  3  0  0  0  0
   -0.8682   -3.8608   -1.5445 H   0  0  0  0  0  0
   -2.2143   -3.1640   -2.2613 H   0  0  0  0  0  0
  1  2  1  0  0  0
  2  3  1  0  0  0
  2  4  1  0  0  0
  2 27  1  0  0  0
  4  5  1  0  0  0
  5  6  2  0  0  0
  5 26  1  0  0  0
  6  7  1  0  0  0
  6 28  1  0  0  0
  7  8  2  0  0  0
  7 29  1  0  0  0
  8  9  1  0  0  0
  8 25  1  0  0  0
  9 10  2  0  0  0
  9 24  1  0  0  0
 10 11  1  0  0  0
 11 12  1  0  0  0
 12 13  1  0  0  0
 12 24  2  0  0  0
 13 17  1  0  0  0
 13 30  1  0  0  0
 13 45  1  0  0  0
 14 15  1  0  0  0
 14 31  1  0  0  0
 14 32  1  0  0  0
 14 45  1  0  0  0
 15 16  1  0  0  0
 15 33  1  0  0  0
 15 34  1  0  0  0
 16 17  1  0  0  0
 16 35  1  0  0  0
 16 36  1  0  0  0
 17 18  1  0  0  0
 17 37  1  0  0  0
 18 19  2  0  0  0
 18 23  1  0  0  0
 19 20  1  0  0  0
 19 38  1  0  0  0
 20 21  2  0  0  0
 20 39  1  0  0  0
 21 22  1  0  0  0
 21 40  1  0  0  0
 22 23  2  0  0  0
 22 41  1  0  0  0
 23 42  1  0  0  0
 25 26  2  0  0  0
 25 43  1  0  0  0
 26 44  1  0  0  0
 45 46  1  0  0  0
 45 47  1  0  0  0
M  CHG  1  45   1
M  END
> <energy>
114.098

> <i_ionizer_Ion_state_n>
1

> <i_ionizer_Tot_Q>
1

> <s_ionizer_Ion_centers>
45

> <s_ionizer_Ion_types>
N5

> <s_ionizer_Ion_ctrs_in>
14

> <r_ionizer_Ionization_penalty>
0.000148807

> <r_ionizer_Ionization_penalty_charging>
0.000148807

> <r_ionizer_Ionization_penalty_neutral>
0

$$$$
ZINC001211869718
                    3D
 Schrodinger Suite 2019-4.
 47 50  0  0  1  0            999 V2000
    8.8501    1.4373    0.8414 F   0  0  0  0  0  0
    7.5306    1.1845    1.0565 C   0  0  0  0  0  0
    7.4773    0.0219    1.7528 F   0  0  0  0  0  0
    6.9151    1.0114   -0.2090 O   0  0  0  0  0  0
    5.5719    0.7518   -0.2218 C   0  0  0  0  0  0
    5.0251    0.6034   -1.4988 C   0  0  0  0  0  0
    3.6723    0.2852   -1.6706 C   0  0  0  0  0  0
    2.8382    0.0990   -0.5591 C   0  0  0  0  0  0
    1.4471   -0.3241   -0.7216 C   0  0  0  0  0  0
    0.8006   -0.3425   -1.8985 N   0  0  0  0  0  0
   -0.4508   -0.8707   -1.5858 O   0  0  0  0  0  0
   -0.4455   -1.1241   -0.2441 C   0  0  0  0  0  0
   -1.7083   -1.6685    0.3764 C   0  0  1  0  0  0
   -3.6088   -3.1623    0.1904 C   0  0  0  0  0  0
   -4.5797   -2.1254    0.7415 C   0  0  0  0  0  0
   -3.8791   -1.0814    1.6103 C   0  0  0  0  0  0
   -2.5586   -0.5370    1.0255 C   0  0  2  0  0  0
   -2.7329    0.7084    0.1594 C   0  0  0  0  0  0
   -1.9413    1.8365    0.4493 C   0  0  0  0  0  0
   -2.0093    2.9897   -0.3336 C   0  0  0  0  0  0
   -2.8735    3.0377   -1.4202 C   0  0  0  0  0  0
   -3.6570    1.9299   -1.7285 C   0  0  0  0  0  0
   -3.5900    0.7726   -0.9451 C   0  0  0  0  0  0
    0.6901   -0.7909    0.3369 N   0  0  0  0  0  0
    3.3852    0.2825    0.7196 C   0  0  0  0  0  0
    4.7419    0.6076    0.8897 C   0  0  0  0  0  0
    7.1044    2.0094    1.6360 H   0  0  0  0  0  0
    5.6619    0.7160   -2.3737 H   0  0  0  0  0  0
    3.2882    0.1557   -2.6806 H   0  0  0  0  0  0
   -1.3616   -2.3172    1.1947 H   0  0  0  0  0  0
   -3.2269   -3.7923    1.0048 H   0  0  0  0  0  0
   -4.1425   -3.8333   -0.4921 H   0  0  0  0  0  0
   -5.3471   -2.6307    1.3405 H   0  0  0  0  0  0
   -5.1148   -1.6420   -0.0811 H   0  0  0  0  0  0
   -4.5724   -0.2651    1.8460 H   0  0  0  0  0  0
   -3.6432   -1.5649    2.5690 H   0  0  0  0  0  0
   -1.9892   -0.2007    1.9054 H   0  0  0  0  0  0
   -1.2439    1.8220    1.2852 H   0  0  0  0  0  0
   -1.3834    3.8446   -0.0938 H   0  0  0  0  0  0
   -2.9271    3.9314   -2.0363 H   0  0  0  0  0  0
   -4.3260    1.9660   -2.5849 H   0  0  0  0  0  0
   -4.2221   -0.0618   -1.2287 H   0  0  0  0  0  0
    2.7594    0.1562    1.6018 H   0  0  0  0  0  0
    5.1113    0.7074    1.9064 H   0  0  0  0  0  0
   -2.4890   -2.5469   -0.5353 N   0  3  0  0  0  0
   -2.8560   -1.9873   -1.3140 H   0  0  0  0  0  0
   -1.8765   -3.2845   -0.9028 H   0  0  0  0  0  0
  1  2  1  0  0  0
  2  3  1  0  0  0
  2  4  1  0  0  0
  2 27  1  0  0  0
  4  5  1  0  0  0
  5  6  2  0  0  0
  5 26  1  0  0  0
  6  7  1  0  0  0
  6 28  1  0  0  0
  7  8  2  0  0  0
  7 29  1  0  0  0
  8  9  1  0  0  0
  8 25  1  0  0  0
  9 10  2  0  0  0
  9 24  1  0  0  0
 10 11  1  0  0  0
 11 12  1  0  0  0
 12 13  1  0  0  0
 12 24  2  0  0  0
 13 17  1  0  0  0
 13 30  1  0  0  0
 13 45  1  0  0  0
 14 15  1  0  0  0
 14 31  1  0  0  0
 14 32  1  0  0  0
 14 45  1  0  0  0
 15 16  1  0  0  0
 15 33  1  0  0  0
 15 34  1  0  0  0
 16 17  1  0  0  0
 16 35  1  0  0  0
 16 36  1  0  0  0
 17 18  1  0  0  0
 17 37  1  0  0  0
 18 19  2  0  0  0
 18 23  1  0  0  0
 19 20  1  0  0  0
 19 38  1  0  0  0
 20 21  2  0  0  0
 20 39  1  0  0  0
 21 22  1  0  0  0
 21 40  1  0  0  0
 22 23  2  0  0  0
 22 41  1  0  0  0
 23 42  1  0  0  0
 25 26  2  0  0  0
 25 43  1  0  0  0
 26 44  1  0  0  0
 45 46  1  0  0  0
 45 47  1  0  0  0
M  CHG  1  45   1
M  END
> <energy>
103.182

> <i_ionizer_Ion_state_n>
1

> <i_ionizer_Tot_Q>
1

> <s_ionizer_Ion_centers>
45

> <s_ionizer_Ion_types>
N5

> <s_ionizer_Ion_ctrs_in>
14

> <r_ionizer_Ionization_penalty>
0.000148807

> <r_ionizer_Ionization_penalty_charging>
0.000148807

> <r_ionizer_Ionization_penalty_neutral>
0

$$$$
ZINC001211869719
                    3D
 Schrodinger Suite 2019-4.
 47 50  0  0  1  0            999 V2000
    6.5552   -1.3166   -0.7322 F   0  0  0  0  0  0
    6.3488   -0.2084   -1.4853 C   0  0  0  0  0  0
    7.4792   -0.0136   -2.2121 F   0  0  0  0  0  0
    6.1947    0.9152   -0.6247 O   0  0  0  0  0  0
    4.9206    0.9486   -0.1279 C   0  0  0  0  0  0
    4.0250    1.8755   -0.6593 C   0  0  0  0  0  0
    2.7120    1.9085   -0.1872 C   0  0  0  0  0  0
    2.3027    1.0477    0.8421 C   0  0  0  0  0  0
    0.9130    1.0387    1.2690 C   0  0  0  0  0  0
    0.4998    0.7164    2.5044 N   0  0  0  0  0  0
   -0.8898    0.7280    2.3971 O   0  0  0  0  0  0
   -1.1781    1.0506    1.1024 C   0  0  0  0  0  0
   -2.6262    1.0030    0.7032 C   0  0  2  0  0  0
   -3.9480    2.2063   -0.9910 C   0  0  0  0  0  0
   -3.3521    1.3998   -2.1468 C   0  0  0  0  0  0
   -2.6411    0.1216   -1.6957 C   0  0  0  0  0  0
   -2.9372   -0.2195   -0.2233 C   0  0  1  0  0  0
   -2.3198   -1.5266    0.2622 C   0  0  0  0  0  0
   -2.9714   -2.2707    1.2590 C   0  0  0  0  0  0
   -2.3954   -3.4348    1.7727 C   0  0  0  0  0  0
   -1.1620   -3.8750    1.2970 C   0  0  0  0  0  0
   -0.5076   -3.1521    0.3057 C   0  0  0  0  0  0
   -1.0792   -1.9878   -0.2067 C   0  0  0  0  0  0
   -0.1042    1.2839    0.3776 N   0  0  0  0  0  0
    3.2324    0.1617    1.4067 C   0  0  0  0  0  0
    4.5414    0.1103    0.9201 C   0  0  0  0  0  0
    5.5060   -0.3575   -2.1715 H   0  0  0  0  0  0
    4.3351    2.5602   -1.4451 H   0  0  0  0  0  0
    2.0003    2.6051   -0.6272 H   0  0  0  0  0  0
   -3.2172    0.8632    1.6200 H   0  0  0  0  0  0
   -4.1858    3.2120   -1.3518 H   0  0  0  0  0  0
   -4.8937    1.7643   -0.6599 H   0  0  0  0  0  0
   -2.6419    2.0167   -2.7113 H   0  0  0  0  0  0
   -4.1539    1.1491   -2.8507 H   0  0  0  0  0  0
   -1.5670    0.2706   -1.8473 H   0  0  0  0  0  0
   -2.9293   -0.7120   -2.3466 H   0  0  0  0  0  0
   -4.0275   -0.3772   -0.1809 H   0  0  0  0  0  0
   -3.9317   -1.9442    1.6549 H   0  0  0  0  0  0
   -2.9028   -3.9919    2.5554 H   0  0  0  0  0  0
   -0.7129   -4.7763    1.6994 H   0  0  0  0  0  0
    0.4601   -3.4844   -0.0620 H   0  0  0  0  0  0
   -0.5202   -1.4290   -0.9530 H   0  0  0  0  0  0
    2.9343   -0.5114    2.2088 H   0  0  0  0  0  0
    5.2527   -0.5869    1.3583 H   0  0  0  0  0  0
   -3.0140    2.3372    0.1366 N   0  3  0  0  0  0
   -3.4614    2.8935    0.8745 H   0  0  0  0  0  0
   -2.1672    2.8181   -0.1888 H   0  0  0  0  0  0
  1  2  1  0  0  0
  2  3  1  0  0  0
  2  4  1  0  0  0
  2 27  1  0  0  0
  4  5  1  0  0  0
  5  6  2  0  0  0
  5 26  1  0  0  0
  6  7  1  0  0  0
  6 28  1  0  0  0
  7  8  2  0  0  0
  7 29  1  0  0  0
  8  9  1  0  0  0
  8 25  1  0  0  0
  9 10  2  0  0  0
  9 24  1  0  0  0
 10 11  1  0  0  0
 11 12  1  0  0  0
 12 13  1  0  0  0
 12 24  2  0  0  0
 13 17  1  0  0  0
 13 30  1  0  0  0
 13 45  1  0  0  0
 14 15  1  0  0  0
 14 31  1  0  0  0
 14 32  1  0  0  0
 14 45  1  0  0  0
 15 16  1  0  0  0
 15 33  1  0  0  0
 15 34  1  0  0  0
 16 17  1  0  0  0
 16 35  1  0  0  0
 16 36  1  0  0  0
 17 18  1  0  0  0
 17 37  1  0  0  0
 18 19  2  0  0  0
 18 23  1  0  0  0
 19 20  1  0  0  0
 19 38  1  0  0  0
 20 21  2  0  0  0
 20 39  1  0  0  0
 21 22  1  0  0  0
 21 40  1  0  0  0
 22 23  2  0  0  0
 22 41  1  0  0  0
 23 42  1  0  0  0
 25 26  2  0  0  0
 25 43  1  0  0  0
 26 44  1  0  0  0
 45 46  1  0  0  0
 45 47  1  0  0  0
M  CHG  1  45   1
M  END
> <energy>
103.442

> <i_ionizer_Ion_state_n>
1

> <i_ionizer_Tot_Q>
1

> <s_ionizer_Ion_centers>
45

> <s_ionizer_Ion_types>
N5

> <s_ionizer_Ion_ctrs_in>
14

> <r_ionizer_Ionization_penalty>
0.000148807

> <r_ionizer_Ionization_penalty_charging>
0.000148807

> <r_ionizer_Ionization_penalty_neutral>
0

$$$$
ZINC001211869720
                    3D
 Schrodinger Suite 2019-4.
 47 50  0  0  1  0            999 V2000
    6.6483   -2.1698    4.2715 F   0  0  0  0  0  0
    5.8283   -1.4181    3.4924 C   0  0  0  0  0  0
    6.2099   -0.1275    3.6604 F   0  0  0  0  0  0
    6.0596   -1.7946    2.1377 O   0  0  0  0  0  0
    5.0642   -1.2875    1.3502 C   0  0  0  0  0  0
    3.9066   -2.0335    1.1427 C   0  0  0  0  0  0
    2.8639   -1.4845    0.3941 C   0  0  0  0  0  0
    2.9897   -0.2052   -0.1694 C   0  0  0  0  0  0
    1.8488    0.4070   -0.8245 C   0  0  0  0  0  0
    1.8896    0.9973   -2.0274 N   0  0  0  0  0  0
    0.5861    1.4695   -2.1984 O   0  0  0  0  0  0
   -0.1012    1.1498   -1.0601 C   0  0  0  0  0  0
   -1.5195    1.6433   -0.9230 C   0  0  2  0  0  0
   -3.0416    3.5194   -1.3468 C   0  0  0  0  0  0
   -4.0993    2.5169   -0.8790 C   0  0  0  0  0  0
   -3.9575    1.1848   -1.6067 C   0  0  0  0  0  0
   -2.5390    0.5847   -1.4401 C   0  0  2  0  0  0
   -2.5750   -0.6745   -0.5768 C   0  0  0  0  0  0
   -2.8789   -0.6365    0.7926 C   0  0  0  0  0  0
   -2.8590   -1.8059    1.5597 C   0  0  0  0  0  0
   -2.5488   -3.0285    0.9668 C   0  0  0  0  0  0
   -2.2573   -3.0819   -0.3932 C   0  0  0  0  0  0
   -2.2714   -1.9146   -1.1592 C   0  0  0  0  0  0
    0.6239    0.4640   -0.2031 N   0  0  0  0  0  0
    4.1912    0.5008   -0.0187 C   0  0  0  0  0  0
    5.2290   -0.0402    0.7459 C   0  0  0  0  0  0
    4.7938   -1.5582    3.8285 H   0  0  0  0  0  0
    3.7972   -3.0248    1.5748 H   0  0  0  0  0  0
    1.9421   -2.0485    0.2576 H   0  0  0  0  0  0
   -1.6598    1.8157    0.1504 H   0  0  0  0  0  0
   -3.3872    4.0118   -2.2639 H   0  0  0  0  0  0
   -2.9398    4.3105   -0.5936 H   0  0  0  0  0  0
   -4.0059    2.3563    0.1990 H   0  0  0  0  0  0
   -5.0993    2.9322   -1.0437 H   0  0  0  0  0  0
   -4.7427    0.4917   -1.2863 H   0  0  0  0  0  0
   -4.1395    1.3664   -2.6735 H   0  0  0  0  0  0
   -2.2194    0.2779   -2.4474 H   0  0  0  0  0  0
   -3.1206    0.3008    1.2876 H   0  0  0  0  0  0
   -3.0735   -1.7623    2.6234 H   0  0  0  0  0  0
   -2.5328   -3.9367    1.5628 H   0  0  0  0  0  0
   -2.0038   -4.0296   -0.8587 H   0  0  0  0  0  0
   -2.0287   -1.9803   -2.2185 H   0  0  0  0  0  0
    4.3085    1.4891   -0.4581 H   0  0  0  0  0  0
    6.1471    0.5231    0.8937 H   0  0  0  0  0  0
   -1.7049    2.9494   -1.6225 N   0  3  0  0  0  0
   -0.9868    3.6078   -1.2982 H   0  0  0  0  0  0
   -1.6048    2.8047   -2.6340 H   0  0  0  0  0  0
  1  2  1  0  0  0
  2  3  1  0  0  0
  2  4  1  0  0  0
  2 27  1  0  0  0
  4  5  1  0  0  0
  5  6  2  0  0  0
  5 26  1  0  0  0
  6  7  1  0  0  0
  6 28  1  0  0  0
  7  8  2  0  0  0
  7 29  1  0  0  0
  8  9  1  0  0  0
  8 25  1  0  0  0
  9 10  2  0  0  0
  9 24  1  0  0  0
 10 11  1  0  0  0
 11 12  1  0  0  0
 12 13  1  0  0  0
 12 24  2  0  0  0
 13 17  1  0  0  0
 13 30  1  0  0  0
 13 45  1  0  0  0
 14 15  1  0  0  0
 14 31  1  0  0  0
 14 32  1  0  0  0
 14 45  1  0  0  0
 15 16  1  0  0  0
 15 33  1  0  0  0
 15 34  1  0  0  0
 16 17  1  0  0  0
 16 35  1  0  0  0
 16 36  1  0  0  0
 17 18  1  0  0  0
 17 37  1  0  0  0
 18 19  2  0  0  0
 18 23  1  0  0  0
 19 20  1  0  0  0
 19 38  1  0  0  0
 20 21  2  0  0  0
 20 39  1  0  0  0
 21 22  1  0  0  0
 21 40  1  0  0  0
 22 23  2  0  0  0
 22 41  1  0  0  0
 23 42  1  0  0  0
 25 26  2  0  0  0
 25 43  1  0  0  0
 26 44  1  0  0  0
 45 46  1  0  0  0
 45 47  1  0  0  0
M  CHG  1  45   1
M  END
> <energy>
106.728

> <i_ionizer_Ion_state_n>
1

> <i_ionizer_Tot_Q>
1

> <s_ionizer_Ion_centers>
45

> <s_ionizer_Ion_types>
N5

> <s_ionizer_Ion_ctrs_in>
14

> <r_ionizer_Ionization_penalty>
0.000148807

> <r_ionizer_Ionization_penalty_charging>
0.000148807

> <r_ionizer_Ionization_penalty_neutral>
0

$$$$
ZINC001211869733
                    3D
 Schrodinger Suite 2019-4.
 47 50  0  0  1  0            999 V2000
   -4.6890    1.5382   -1.1340 C   0  0  0  0  0  0
   -4.1214    0.2309   -1.2195 O   0  0  0  0  0  0
   -4.0802   -0.3680    0.0144 C   0  0  0  0  0  0
   -5.2491   -0.9297    0.5346 C   0  0  0  0  0  0
   -5.1970   -1.6164    1.7467 C   0  0  0  0  0  0
   -6.6340   -2.3012    2.4011 Cl  0  0  0  0  0  0
   -3.9896   -1.7583    2.4337 C   0  0  0  0  0  0
   -2.8187   -1.2131    1.9015 C   0  0  0  0  0  0
   -2.8544   -0.5156    0.6856 C   0  0  0  0  0  0
   -1.6295    0.0308    0.1370 C   0  0  0  0  0  0
   -1.3897    1.3465    0.0345 N   0  0  0  0  0  0
   -0.1545    1.4036   -0.6057 O   0  0  0  0  0  0
    0.2444    0.1091   -0.7999 C   0  0  0  0  0  0
    1.5015   -0.0862   -1.6116 C   0  0  1  0  0  0
    1.6012   -2.5463   -1.8116 C   0  0  0  0  0  0
    2.8989   -2.5976   -1.0106 C   0  0  0  0  0  0
    2.9669   -1.4407   -0.0199 C   0  0  0  0  0  0
    2.8030   -0.1029   -0.7647 C   0  0  2  0  0  0
    2.9960    1.1385    0.0947 C   0  0  0  0  0  0
    2.8136    1.1240    1.4837 C   0  0  0  0  0  0
    3.0269    2.2738    2.2456 C   0  0  0  0  0  0
    3.4125    3.4600    1.6285 C   0  0  0  0  0  0
    3.5801    3.5012    0.2476 C   0  0  0  0  0  0
    3.3724    2.3487   -0.5150 C   0  0  0  0  0  0
   -0.6117   -0.7702   -0.3269 N   0  0  0  0  0  0
   -5.7802    1.4787   -1.0750 H   0  0  0  0  0  0
   -4.4286    2.0787   -2.0490 H   0  0  0  0  0  0
   -4.2923    2.1041   -0.2835 H   0  0  0  0  0  0
   -6.1830   -0.8476   -0.0135 H   0  0  0  0  0  0
   -3.9528   -2.2982    3.3772 H   0  0  0  0  0  0
   -1.8766   -1.3380    2.4312 H   0  0  0  0  0  0
    1.5592    0.7808   -2.2829 H   0  0  0  0  0  0
    0.7505   -2.7484   -1.1532 H   0  0  0  0  0  0
    1.6099   -3.3494   -2.5554 H   0  0  0  0  0  0
    2.9671   -3.5507   -0.4725 H   0  0  0  0  0  0
    3.7600   -2.5532   -1.6914 H   0  0  0  0  0  0
    2.1809   -1.5750    0.7346 H   0  0  0  0  0  0
    3.9286   -1.4677    0.5079 H   0  0  0  0  0  0
    3.6414   -0.0755   -1.4787 H   0  0  0  0  0  0
    2.5059    0.2214    2.0011 H   0  0  0  0  0  0
    2.8891    2.2385    3.3231 H   0  0  0  0  0  0
    3.5809    4.3530    2.2248 H   0  0  0  0  0  0
    3.8753    4.4295   -0.2372 H   0  0  0  0  0  0
    3.5170    2.4025   -1.5928 H   0  0  0  0  0  0
    1.4276   -1.2689   -2.5413 N   0  3  0  0  0  0
    0.5116   -1.2718   -3.0052 H   0  0  0  0  0  0
    2.1684   -1.1850   -3.2473 H   0  0  0  0  0  0
  1  2  1  0  0  0
  1 26  1  0  0  0
  1 27  1  0  0  0
  1 28  1  0  0  0
  2  3  1  0  0  0
  3  4  2  0  0  0
  3  9  1  0  0  0
  4  5  1  0  0  0
  4 29  1  0  0  0
  5  6  1  0  0  0
  5  7  2  0  0  0
  7  8  1  0  0  0
  7 30  1  0  0  0
  8  9  2  0  0  0
  8 31  1  0  0  0
  9 10  1  0  0  0
 10 11  2  0  0  0
 10 25  1  0  0  0
 11 12  1  0  0  0
 12 13  1  0  0  0
 13 14  1  0  0  0
 13 25  2  0  0  0
 14 18  1  0  0  0
 14 32  1  0  0  0
 14 45  1  0  0  0
 15 16  1  0  0  0
 15 33  1  0  0  0
 15 34  1  0  0  0
 15 45  1  0  0  0
 16 17  1  0  0  0
 16 35  1  0  0  0
 16 36  1  0  0  0
 17 18  1  0  0  0
 17 37  1  0  0  0
 17 38  1  0  0  0
 18 19  1  0  0  0
 18 39  1  0  0  0
 19 20  2  0  0  0
 19 24  1  0  0  0
 20 21  1  0  0  0
 20 40  1  0  0  0
 21 22  2  0  0  0
 21 41  1  0  0  0
 22 23  1  0  0  0
 22 42  1  0  0  0
 23 24  2  0  0  0
 23 43  1  0  0  0
 24 44  1  0  0  0
 45 46  1  0  0  0
 45 47  1  0  0  0
M  CHG  1  45   1
M  END
> <energy>
101.191

> <i_ionizer_Ion_state_n>
1

> <i_ionizer_Tot_Q>
1

> <s_ionizer_Ion_centers>
45

> <s_ionizer_Ion_types>
N5

> <s_ionizer_Ion_ctrs_in>
15

> <r_ionizer_Ionization_penalty>
0.000148807

> <r_ionizer_Ionization_penalty_charging>
0.000148807

> <r_ionizer_Ionization_penalty_neutral>
0

$$$$
ZINC001211869734
                    3D
 Schrodinger Suite 2019-4.
 47 50  0  0  1  0            999 V2000
   -4.6027   -0.7174   -1.3930 C   0  0  0  0  0  0
   -3.7123    0.3994   -1.3930 O   0  0  0  0  0  0
   -3.8536    1.1266   -0.2383 C   0  0  0  0  0  0
   -4.9154    2.0339   -0.1591 C   0  0  0  0  0  0
   -5.0861    2.7943    0.9945 C   0  0  0  0  0  0
   -6.3975    3.9006    1.1017 Cl  0  0  0  0  0  0
   -4.2018    2.6621    2.0635 C   0  0  0  0  0  0
   -3.1304    1.7666    1.9733 C   0  0  0  0  0  0
   -2.9357    0.9940    0.8159 C   0  0  0  0  0  0
   -1.7992    0.0864    0.7382 C   0  0  0  0  0  0
   -1.3857   -0.6700    1.7708 N   0  0  0  0  0  0
   -0.2763   -1.3451    1.2599 O   0  0  0  0  0  0
   -0.1173   -0.9119   -0.0243 C   0  0  0  0  0  0
    1.0664   -1.4217   -0.7950 C   0  0  1  0  0  0
    2.0312   -3.3449   -1.9318 C   0  0  0  0  0  0
    3.3811   -3.1230   -1.2559 C   0  0  0  0  0  0
    3.5836   -1.6536   -0.8960 C   0  0  0  0  0  0
    2.4043   -1.1330   -0.0513 C   0  0  1  0  0  0
    2.6650    0.3161    0.3427 C   0  0  0  0  0  0
    3.3834    0.5787    1.5226 C   0  0  0  0  0  0
    3.6525    1.8888    1.9228 C   0  0  0  0  0  0
    3.2055    2.9577    1.1529 C   0  0  0  0  0  0
    2.4959    2.7164   -0.0203 C   0  0  0  0  0  0
    2.2346    1.4057   -0.4289 C   0  0  0  0  0  0
   -1.0295   -0.0409   -0.3934 N   0  0  0  0  0  0
   -4.2537   -1.4255   -2.1502 H   0  0  0  0  0  0
   -4.6158   -1.2350   -0.4268 H   0  0  0  0  0  0
   -5.6144   -0.3971   -1.6638 H   0  0  0  0  0  0
   -5.5950    2.1450   -0.9986 H   0  0  0  0  0  0
   -4.3318    3.2572    2.9640 H   0  0  0  0  0  0
   -2.4372    1.6847    2.8097 H   0  0  0  0  0  0
    1.0603   -0.8880   -1.7544 H   0  0  0  0  0  0
    2.0123   -2.8490   -2.9096 H   0  0  0  0  0  0
    1.8913   -4.4150   -2.1229 H   0  0  0  0  0  0
    3.4443   -3.7337   -0.3468 H   0  0  0  0  0  0
    4.1872   -3.4556   -1.9196 H   0  0  0  0  0  0
    4.5295   -1.5414   -0.3533 H   0  0  0  0  0  0
    3.6761   -1.0629   -1.8169 H   0  0  0  0  0  0
    2.3838   -1.7165    0.8828 H   0  0  0  0  0  0
    3.7418   -0.2397    2.1441 H   0  0  0  0  0  0
    4.2117    2.0744    2.8356 H   0  0  0  0  0  0
    3.4070    3.9783    1.4656 H   0  0  0  0  0  0
    2.1419    3.5493   -0.6225 H   0  0  0  0  0  0
    1.6822    1.2627   -1.3549 H   0  0  0  0  0  0
    0.9117   -2.8741   -1.1039 N   0  3  0  0  0  0
    0.8932   -3.4065   -0.2261 H   0  0  0  0  0  0
    0.0311   -3.0201   -1.6113 H   0  0  0  0  0  0
  1  2  1  0  0  0
  1 26  1  0  0  0
  1 27  1  0  0  0
  1 28  1  0  0  0
  2  3  1  0  0  0
  3  4  2  0  0  0
  3  9  1  0  0  0
  4  5  1  0  0  0
  4 29  1  0  0  0
  5  6  1  0  0  0
  5  7  2  0  0  0
  7  8  1  0  0  0
  7 30  1  0  0  0
  8  9  2  0  0  0
  8 31  1  0  0  0
  9 10  1  0  0  0
 10 11  2  0  0  0
 10 25  1  0  0  0
 11 12  1  0  0  0
 12 13  1  0  0  0
 13 14  1  0  0  0
 13 25  2  0  0  0
 14 18  1  0  0  0
 14 32  1  0  0  0
 14 45  1  0  0  0
 15 16  1  0  0  0
 15 33  1  0  0  0
 15 34  1  0  0  0
 15 45  1  0  0  0
 16 17  1  0  0  0
 16 35  1  0  0  0
 16 36  1  0  0  0
 17 18  1  0  0  0
 17 37  1  0  0  0
 17 38  1  0  0  0
 18 19  1  0  0  0
 18 39  1  0  0  0
 19 20  2  0  0  0
 19 24  1  0  0  0
 20 21  1  0  0  0
 20 40  1  0  0  0
 21 22  2  0  0  0
 21 41  1  0  0  0
 22 23  1  0  0  0
 22 42  1  0  0  0
 23 24  2  0  0  0
 23 43  1  0  0  0
 24 44  1  0  0  0
 45 46  1  0  0  0
 45 47  1  0  0  0
M  CHG  1  45   1
M  END
> <energy>
102.538

> <i_ionizer_Ion_state_n>
1

> <i_ionizer_Tot_Q>
1

> <s_ionizer_Ion_centers>
45

> <s_ionizer_Ion_types>
N5

> <s_ionizer_Ion_ctrs_in>
15

> <r_ionizer_Ionization_penalty>
0.000148807

> <r_ionizer_Ionization_penalty_charging>
0.000148807

> <r_ionizer_Ionization_penalty_neutral>
0

$$$$
ZINC001211869735
                    3D
 Schrodinger Suite 2019-4.
 47 50  0  0  1  0            999 V2000
   -2.9844    1.7104   -1.2524 C   0  0  0  0  0  0
   -3.5875    0.7712   -0.3607 O   0  0  0  0  0  0
   -3.5566    1.2394    0.9287 C   0  0  0  0  0  0
   -4.5509    2.1484    1.3117 C   0  0  0  0  0  0
   -4.6088    2.5959    2.6282 C   0  0  0  0  0  0
   -5.8234    3.7201    3.0975 Cl  0  0  0  0  0  0
   -3.6948    2.1317    3.5696 C   0  0  0  0  0  0
   -2.7168    1.2061    3.1903 C   0  0  0  0  0  0
   -2.6337    0.7409    1.8641 C   0  0  0  0  0  0
   -1.6022   -0.2304    1.5094 C   0  0  0  0  0  0
   -1.0696   -1.0933    2.3941 N   0  0  0  0  0  0
   -0.1283   -1.7967    1.6493 O   0  0  0  0  0  0
   -0.1672   -1.2820    0.3871 C   0  0  0  0  0  0
    0.7721   -1.8961   -0.6127 C   0  0  2  0  0  0
    0.8824   -3.3262   -2.5882 C   0  0  0  0  0  0
    1.6820   -2.2820   -3.3598 C   0  0  0  0  0  0
    2.5058   -1.4114   -2.4167 C   0  0  0  0  0  0
    1.6181   -0.7968   -1.3167 C   0  0  2  0  0  0
    2.4685    0.0243   -0.3537 C   0  0  0  0  0  0
    3.4437   -0.5649    0.4656 C   0  0  0  0  0  0
    4.1968    0.2149    1.3459 C   0  0  0  0  0  0
    3.9881    1.5904    1.4173 C   0  0  0  0  0  0
    3.0260    2.1890    0.6084 C   0  0  0  0  0  0
    2.2706    1.4117   -0.2708 C   0  0  0  0  0  0
   -1.0481   -0.3156    0.2516 N   0  0  0  0  0  0
   -3.6539    2.5594   -1.4254 H   0  0  0  0  0  0
   -2.8209    1.2063   -2.2096 H   0  0  0  0  0  0
   -2.0144    2.0639   -0.8841 H   0  0  0  0  0  0
   -5.2829    2.4878    0.5844 H   0  0  0  0  0  0
   -3.7402    2.4754    4.6001 H   0  0  0  0  0  0
   -2.0153    0.8479    3.9428 H   0  0  0  0  0  0
    1.4387   -2.5815   -0.0714 H   0  0  0  0  0  0
    1.5555   -4.0416   -2.1010 H   0  0  0  0  0  0
    0.2658   -3.8955   -3.2922 H   0  0  0  0  0  0
    1.0016   -1.6478   -3.9424 H   0  0  0  0  0  0
    2.3458   -2.7796   -4.0758 H   0  0  0  0  0  0
    3.3009   -2.0261   -1.9753 H   0  0  0  0  0  0
    3.0044   -0.6190   -2.9890 H   0  0  0  0  0  0
    0.9198   -0.1104   -1.8198 H   0  0  0  0  0  0
    3.6318   -1.6350    0.4297 H   0  0  0  0  0  0
    4.9481   -0.2516    1.9777 H   0  0  0  0  0  0
    4.5745    2.1959    2.1030 H   0  0  0  0  0  0
    2.8599    3.2617    0.6621 H   0  0  0  0  0  0
    1.5179    1.8981   -0.8880 H   0  0  0  0  0  0
   -0.0078   -2.6996   -1.6018 N   0  3  0  0  0  0
   -0.5270   -3.4327   -1.1045 H   0  0  0  0  0  0
   -0.6684   -2.0831   -2.0894 H   0  0  0  0  0  0
  1  2  1  0  0  0
  1 26  1  0  0  0
  1 27  1  0  0  0
  1 28  1  0  0  0
  2  3  1  0  0  0
  3  4  2  0  0  0
  3  9  1  0  0  0
  4  5  1  0  0  0
  4 29  1  0  0  0
  5  6  1  0  0  0
  5  7  2  0  0  0
  7  8  1  0  0  0
  7 30  1  0  0  0
  8  9  2  0  0  0
  8 31  1  0  0  0
  9 10  1  0  0  0
 10 11  2  0  0  0
 10 25  1  0  0  0
 11 12  1  0  0  0
 12 13  1  0  0  0
 13 14  1  0  0  0
 13 25  2  0  0  0
 14 18  1  0  0  0
 14 32  1  0  0  0
 14 45  1  0  0  0
 15 16  1  0  0  0
 15 33  1  0  0  0
 15 34  1  0  0  0
 15 45  1  0  0  0
 16 17  1  0  0  0
 16 35  1  0  0  0
 16 36  1  0  0  0
 17 18  1  0  0  0
 17 37  1  0  0  0
 17 38  1  0  0  0
 18 19  1  0  0  0
 18 39  1  0  0  0
 19 20  2  0  0  0
 19 24  1  0  0  0
 20 21  1  0  0  0
 20 40  1  0  0  0
 21 22  2  0  0  0
 21 41  1  0  0  0
 22 23  1  0  0  0
 22 42  1  0  0  0
 23 24  2  0  0  0
 23 43  1  0  0  0
 24 44  1  0  0  0
 45 46  1  0  0  0
 45 47  1  0  0  0
M  CHG  1  45   1
M  END
> <energy>
99.1395

> <i_ionizer_Ion_state_n>
1

> <i_ionizer_Tot_Q>
1

> <s_ionizer_Ion_centers>
45

> <s_ionizer_Ion_types>
N5

> <s_ionizer_Ion_ctrs_in>
15

> <r_ionizer_Ionization_penalty>
0.000148807

> <r_ionizer_Ionization_penalty_charging>
0.000148807

> <r_ionizer_Ionization_penalty_neutral>
0

$$$$
ZINC001211869736
                    3D
 Schrodinger Suite 2019-4.
 47 50  0  0  1  0            999 V2000
   -5.0268   -0.0717    2.8149 C   0  0  0  0  0  0
   -4.4048   -0.2563    1.5472 O   0  0  0  0  0  0
   -4.2890    0.8950    0.8086 C   0  0  0  0  0  0
   -5.4122    1.6914    0.5489 C   0  0  0  0  0  0
   -5.3051    2.7840   -0.3094 C   0  0  0  0  0  0
   -6.6942    3.7422   -0.6483 Cl  0  0  0  0  0  0
   -4.0916    3.0911   -0.9181 C   0  0  0  0  0  0
   -2.9711    2.2916   -0.6675 C   0  0  0  0  0  0
   -3.0530    1.1896    0.2016 C   0  0  0  0  0  0
   -1.8715    0.3608    0.4169 C   0  0  0  0  0  0
   -1.5464   -0.2123    1.5879 N   0  0  0  0  0  0
   -0.4458   -1.0022    1.2748 O   0  0  0  0  0  0
   -0.1845   -0.8015   -0.0487 C   0  0  0  0  0  0
    0.8559   -1.6946   -0.6626 C   0  0  2  0  0  0
    1.9017   -2.4350   -2.7446 C   0  0  0  0  0  0
    3.2884   -2.3678   -2.1167 C   0  0  0  0  0  0
    3.2325   -2.5820   -0.6066 C   0  0  0  0  0  0
    2.2198   -1.6478    0.0881 C   0  0  1  0  0  0
    2.8545   -0.2900    0.3811 C   0  0  0  0  0  0
    3.0340    0.7071   -0.5862 C   0  0  0  0  0  0
    3.6816    1.9060   -0.2702 C   0  0  0  0  0  0
    4.1537    2.1329    1.0190 C   0  0  0  0  0  0
    3.9844    1.1564    1.9937 C   0  0  0  0  0  0
    3.3456   -0.0443    1.6774 C   0  0  0  0  0  0
   -0.9882    0.0824   -0.6045 N   0  0  0  0  0  0
   -6.1164   -0.0965    2.7139 H   0  0  0  0  0  0
   -4.7048    0.8554    3.3023 H   0  0  0  0  0  0
   -4.7296   -0.9085    3.4550 H   0  0  0  0  0  0
   -6.3784    1.4394    0.9750 H   0  0  0  0  0  0
   -4.0108    3.9344   -1.5996 H   0  0  0  0  0  0
   -2.0310    2.5274   -1.1644 H   0  0  0  0  0  0
    0.4616   -2.7134   -0.5216 H   0  0  0  0  0  0
    1.9772   -2.2028   -3.8135 H   0  0  0  0  0  0
    1.5189   -3.4616   -2.6811 H   0  0  0  0  0  0
    3.9258   -3.1393   -2.5627 H   0  0  0  0  0  0
    3.7633   -1.4084   -2.3484 H   0  0  0  0  0  0
    2.9240   -3.6205   -0.4212 H   0  0  0  0  0  0
    4.2347   -2.4713   -0.1747 H   0  0  0  0  0  0
    2.0248   -2.1023    1.0716 H   0  0  0  0  0  0
    2.7076    0.5702   -1.6103 H   0  0  0  0  0  0
    3.8216    2.6623   -1.0386 H   0  0  0  0  0  0
    4.6545    3.0670    1.2603 H   0  0  0  0  0  0
    4.3576    1.3245    3.0010 H   0  0  0  0  0  0
    3.2456   -0.7954    2.4583 H   0  0  0  0  0  0
    0.9293   -1.5132   -2.1421 N   0  3  0  0  0  0
    0.0031   -1.6921   -2.5476 H   0  0  0  0  0  0
    1.2121   -0.5477   -2.3473 H   0  0  0  0  0  0
  1  2  1  0  0  0
  1 26  1  0  0  0
  1 27  1  0  0  0
  1 28  1  0  0  0
  2  3  1  0  0  0
  3  4  2  0  0  0
  3  9  1  0  0  0
  4  5  1  0  0  0
  4 29  1  0  0  0
  5  6  1  0  0  0
  5  7  2  0  0  0
  7  8  1  0  0  0
  7 30  1  0  0  0
  8  9  2  0  0  0
  8 31  1  0  0  0
  9 10  1  0  0  0
 10 11  2  0  0  0
 10 25  1  0  0  0
 11 12  1  0  0  0
 12 13  1  0  0  0
 13 14  1  0  0  0
 13 25  2  0  0  0
 14 18  1  0  0  0
 14 32  1  0  0  0
 14 45  1  0  0  0
 15 16  1  0  0  0
 15 33  1  0  0  0
 15 34  1  0  0  0
 15 45  1  0  0  0
 16 17  1  0  0  0
 16 35  1  0  0  0
 16 36  1  0  0  0
 17 18  1  0  0  0
 17 37  1  0  0  0
 17 38  1  0  0  0
 18 19  1  0  0  0
 18 39  1  0  0  0
 19 20  2  0  0  0
 19 24  1  0  0  0
 20 21  1  0  0  0
 20 40  1  0  0  0
 21 22  2  0  0  0
 21 41  1  0  0  0
 22 23  1  0  0  0
 22 42  1  0  0  0
 23 24  2  0  0  0
 23 43  1  0  0  0
 24 44  1  0  0  0
 45 46  1  0  0  0
 45 47  1  0  0  0
M  CHG  1  45   1
M  END
> <energy>
106.662

> <i_ionizer_Ion_state_n>
1

> <i_ionizer_Tot_Q>
1

> <s_ionizer_Ion_centers>
45

> <s_ionizer_Ion_types>
N5

> <s_ionizer_Ion_ctrs_in>
15

> <r_ionizer_Ionization_penalty>
0.000148807

> <r_ionizer_Ionization_penalty_charging>
0.000148807

> <r_ionizer_Ionization_penalty_neutral>
0

$$$$
ZINC001211869743
                    3D
 Schrodinger Suite 2019-4.
 55 59  0  0  1  0            999 V2000
    0.3196    2.6409    1.5099 C   0  0  0  0  0  0
    0.6112    2.3412    0.1806 C   0  0  0  0  0  0
    1.7284    1.5652   -0.1304 C   0  0  0  0  0  0
    2.5553    1.0682    0.8844 C   0  0  0  0  0  0
    3.7248    0.1404    0.5948 C   0  0  2  0  0  0
    4.8404    0.8839   -0.1558 C   0  0  0  0  0  0
    6.0233   -0.0468   -0.3944 C   0  0  0  0  0  0
    5.5853   -1.3616   -1.0470 C   0  0  0  0  0  0
    3.3407   -1.1562   -0.1797 C   0  0  2  0  0  0
    2.1451   -1.8322    0.4277 C   0  0  0  0  0  0
    0.9743   -2.0117   -0.1352 N   0  0  0  0  0  0
    0.1455   -2.2096    0.9496 C   0  0  0  0  0  0
   -1.2911   -2.0844    0.7638 C   0  0  0  0  0  0
   -2.0703   -1.2998    1.6229 C   0  0  0  0  0  0
   -3.3198   -0.8186    1.1959 C   0  0  0  0  0  0
   -3.7887   -1.0833   -0.0977 C   0  0  0  0  0  0
   -4.8142   -0.3621   -0.7128 N   0  0  0  0  0  0
   -5.5349    0.7167   -0.0294 C   0  0  0  0  0  0
   -6.1669    1.5012   -1.1751 C   0  0  0  0  0  0
   -5.0725    1.4747   -2.2251 C   0  0  0  0  0  0
   -4.4899    0.0727   -2.0923 C   0  0  0  0  0  0
   -3.1143   -2.0834   -0.8244 C   0  0  0  0  0  0
   -1.8639   -2.5462   -0.4198 C   0  0  0  0  0  0
    0.7895   -2.2955    2.1244 N   0  0  0  0  0  0
    2.1304   -2.0568    1.7759 O   0  0  0  0  0  0
    2.2620    1.3969    2.2182 C   0  0  0  0  0  0
    1.1464    2.1732    2.5261 C   0  0  0  0  0  0
   -0.5591    3.2346    1.7486 H   0  0  0  0  0  0
   -0.0324    2.7031   -0.6133 H   0  0  0  0  0  0
    1.9288    1.3340   -1.1748 H   0  0  0  0  0  0
    4.1406   -0.1728    1.5641 H   0  0  0  0  0  0
    5.1625    1.7639    0.4168 H   0  0  0  0  0  0
    4.4720    1.2557   -1.1221 H   0  0  0  0  0  0
    6.5221   -0.2490    0.5605 H   0  0  0  0  0  0
    6.7595    0.4593   -1.0296 H   0  0  0  0  0  0
    5.2527   -1.1659   -2.0733 H   0  0  0  0  0  0
    6.4492   -2.0296   -1.1227 H   0  0  0  0  0  0
    3.0317   -0.8803   -1.2000 H   0  0  0  0  0  0
   -1.6636   -0.9506    2.5694 H   0  0  0  0  0  0
   -3.8635   -0.1503    1.8569 H   0  0  0  0  0  0
   -6.2915    0.3359    0.6622 H   0  0  0  0  0  0
   -4.8573    1.3823    0.5169 H   0  0  0  0  0  0
   -6.4503    2.5204   -0.8874 H   0  0  0  0  0  0
   -7.0593    0.9872   -1.5533 H   0  0  0  0  0  0
   -4.3037    2.2201   -1.9828 H   0  0  0  0  0  0
   -5.4369    1.6715   -3.2366 H   0  0  0  0  0  0
   -4.9564   -0.6078   -2.8098 H   0  0  0  0  0  0
   -3.4111    0.1229   -2.2907 H   0  0  0  0  0  0
   -3.5015   -2.4241   -1.7823 H   0  0  0  0  0  0
   -1.2897   -3.1867   -1.0885 H   0  0  0  0  0  0
    2.8811    1.0309    3.0331 H   0  0  0  0  0  0
    0.9132    2.4020    3.5641 H   0  0  0  0  0  0
    4.5199   -2.0496   -0.3065 N   0  3  0  0  0  0
    4.2495   -2.9021   -0.8109 H   0  0  0  0  0  0
    4.8611   -2.2993    0.6292 H   0  0  0  0  0  0
  1  2  2  0  0  0
  1 27  1  0  0  0
  1 28  1  0  0  0
  2  3  1  0  0  0
  2 29  1  0  0  0
  3  4  2  0  0  0
  3 30  1  0  0  0
  4  5  1  0  0  0
  4 26  1  0  0  0
  5  6  1  0  0  0
  5  9  1  0  0  0
  5 31  1  0  0  0
  6  7  1  0  0  0
  6 32  1  0  0  0
  6 33  1  0  0  0
  7  8  1  0  0  0
  7 34  1  0  0  0
  7 35  1  0  0  0
  8 36  1  0  0  0
  8 37  1  0  0  0
  8 53  1  0  0  0
  9 10  1  0  0  0
  9 38  1  0  0  0
  9 53  1  0  0  0
 10 11  2  0  0  0
 10 25  1  0  0  0
 11 12  1  0  0  0
 12 13  1  0  0  0
 12 24  2  0  0  0
 13 14  2  0  0  0
 13 23  1  0  0  0
 14 15  1  0  0  0
 14 39  1  0  0  0
 15 16  2  0  0  0
 15 40  1  0  0  0
 16 17  1  0  0  0
 16 22  1  0  0  0
 17 18  1  0  0  0
 17 21  1  0  0  0
 18 19  1  0  0  0
 18 41  1  0  0  0
 18 42  1  0  0  0
 19 20  1  0  0  0
 19 43  1  0  0  0
 19 44  1  0  0  0
 20 21  1  0  0  0
 20 45  1  0  0  0
 20 46  1  0  0  0
 21 47  1  0  0  0
 21 48  1  0  0  0
 22 23  2  0  0  0
 22 49  1  0  0  0
 23 50  1  0  0  0
 24 25  1  0  0  0
 26 27  2  0  0  0
 26 51  1  0  0  0
 27 52  1  0  0  0
 53 54  1  0  0  0
 53 55  1  0  0  0
M  CHG  1  53   1
M  END
> <energy>
108.26

> <i_ionizer_Ion_state_n>
1

> <i_ionizer_Tot_Q>
1

> <s_ionizer_Ion_centers>
53

> <s_ionizer_Ion_types>
N5

> <s_ionizer_Ion_ctrs_in>
9

> <r_ionizer_Ionization_penalty>
0.00311085

> <r_ionizer_Ionization_penalty_charging>
0.000148807

> <r_ionizer_Ionization_penalty_neutral>
0.00296205

$$$$
ZINC001211869744
                    3D
 Schrodinger Suite 2019-4.
 55 59  0  0  1  0            999 V2000
    4.5775    3.0173    0.3219 C   0  0  0  0  0  0
    3.2628    2.6179    0.5330 C   0  0  0  0  0  0
    2.9373    1.2601    0.5558 C   0  0  0  0  0  0
    3.9217    0.2754    0.3798 C   0  0  0  0  0  0
    3.5960   -1.2107    0.4540 C   0  0  1  0  0  0
    2.5522   -1.5573    1.5341 C   0  0  0  0  0  0
    2.3055   -3.0596    1.6122 C   0  0  0  0  0  0
    2.0714   -3.6896    0.2413 C   0  0  0  0  0  0
    3.2448   -1.8680   -0.9139 C   0  0  2  0  0  0
    2.0421   -1.2516   -1.5771 C   0  0  0  0  0  0
    0.8285   -1.0793   -1.0985 N   0  0  0  0  0  0
    0.1806   -0.4646   -2.1381 C   0  0  0  0  0  0
   -1.1516    0.0588   -1.9311 C   0  0  0  0  0  0
   -2.2534   -0.7895   -1.7971 C   0  0  0  0  0  0
   -3.4727   -0.2888   -1.3217 C   0  0  0  0  0  0
   -3.6142    1.0628   -0.9675 C   0  0  0  0  0  0
   -4.7349    1.5944   -0.3158 N   0  0  0  0  0  0
   -4.3914    2.1066    1.0379 C   0  0  0  0  0  0
   -5.5493    1.6818    1.9359 C   0  0  0  0  0  0
   -6.0729    0.4360    1.2466 C   0  0  0  0  0  0
   -5.9845    0.8293   -0.2190 C   0  0  0  0  0  0
   -2.5221    1.9155   -1.2135 C   0  0  0  0  0  0
   -1.3035    1.4226   -1.6767 C   0  0  0  0  0  0
    0.9349   -0.2679   -3.2325 N   0  0  0  0  0  0
    2.1798   -0.8038   -2.8614 O   0  0  0  0  0  0
    5.2412    0.6966    0.1512 C   0  0  0  0  0  0
    5.5657    2.0589    0.1210 C   0  0  0  0  0  0
    4.8358    4.0730    0.3044 H   0  0  0  0  0  0
    2.4857    3.3642    0.6805 H   0  0  0  0  0  0
    1.8941    0.9928    0.7068 H   0  0  0  0  0  0
    4.5242   -1.6912    0.7999 H   0  0  0  0  0  0
    2.8911   -1.1870    2.5100 H   0  0  0  0  0  0
    1.5922   -1.0643    1.3485 H   0  0  0  0  0  0
    3.1640   -3.5446    2.0914 H   0  0  0  0  0  0
    1.4339   -3.2521    2.2507 H   0  0  0  0  0  0
    2.0645   -4.7813    0.3448 H   0  0  0  0  0  0
    1.0742   -3.4343   -0.1290 H   0  0  0  0  0  0
    4.0990   -1.7183   -1.5882 H   0  0  0  0  0  0
   -2.1545   -1.8558   -1.9996 H   0  0  0  0  0  0
   -4.2736   -1.0059   -1.1730 H   0  0  0  0  0  0
   -3.4665    1.6568    1.4277 H   0  0  0  0  0  0
   -4.2744    3.1961    1.0276 H   0  0  0  0  0  0
   -5.2251    1.4912    2.9622 H   0  0  0  0  0  0
   -6.3158    2.4632    1.9507 H   0  0  0  0  0  0
   -7.0908    0.1825    1.5472 H   0  0  0  0  0  0
   -5.4172   -0.4160    1.4555 H   0  0  0  0  0  0
   -6.0738   -0.0255   -0.8925 H   0  0  0  0  0  0
   -6.8118    1.5041   -0.4759 H   0  0  0  0  0  0
   -2.6113    2.9794   -0.9969 H   0  0  0  0  0  0
   -0.4527    2.0928   -1.7675 H   0  0  0  0  0  0
    6.0340   -0.0322   -0.0058 H   0  0  0  0  0  0
    6.5920    2.3650   -0.0561 H   0  0  0  0  0  0
    3.1102   -3.3531   -0.7591 N   0  3  0  0  0  0
    4.0098   -3.7419   -0.4529 H   0  0  0  0  0  0
    2.8504   -3.7630   -1.6640 H   0  0  0  0  0  0
  1  2  2  0  0  0
  1 27  1  0  0  0
  1 28  1  0  0  0
  2  3  1  0  0  0
  2 29  1  0  0  0
  3  4  2  0  0  0
  3 30  1  0  0  0
  4  5  1  0  0  0
  4 26  1  0  0  0
  5  6  1  0  0  0
  5  9  1  0  0  0
  5 31  1  0  0  0
  6  7  1  0  0  0
  6 32  1  0  0  0
  6 33  1  0  0  0
  7  8  1  0  0  0
  7 34  1  0  0  0
  7 35  1  0  0  0
  8 36  1  0  0  0
  8 37  1  0  0  0
  8 53  1  0  0  0
  9 10  1  0  0  0
  9 38  1  0  0  0
  9 53  1  0  0  0
 10 11  2  0  0  0
 10 25  1  0  0  0
 11 12  1  0  0  0
 12 13  1  0  0  0
 12 24  2  0  0  0
 13 14  2  0  0  0
 13 23  1  0  0  0
 14 15  1  0  0  0
 14 39  1  0  0  0
 15 16  2  0  0  0
 15 40  1  0  0  0
 16 17  1  0  0  0
 16 22  1  0  0  0
 17 18  1  0  0  0
 17 21  1  0  0  0
 18 19  1  0  0  0
 18 41  1  0  0  0
 18 42  1  0  0  0
 19 20  1  0  0  0
 19 43  1  0  0  0
 19 44  1  0  0  0
 20 21  1  0  0  0
 20 45  1  0  0  0
 20 46  1  0  0  0
 21 47  1  0  0  0
 21 48  1  0  0  0
 22 23  2  0  0  0
 22 49  1  0  0  0
 23 50  1  0  0  0
 24 25  1  0  0  0
 26 27  2  0  0  0
 26 51  1  0  0  0
 27 52  1  0  0  0
 53 54  1  0  0  0
 53 55  1  0  0  0
M  CHG  1  53   1
M  END
> <energy>
105.087

> <i_ionizer_Ion_state_n>
1

> <i_ionizer_Tot_Q>
1

> <s_ionizer_Ion_centers>
53

> <s_ionizer_Ion_types>
N5

> <s_ionizer_Ion_ctrs_in>
9

> <r_ionizer_Ionization_penalty>
0.00311085

> <r_ionizer_Ionization_penalty_charging>
0.000148807

> <r_ionizer_Ionization_penalty_neutral>
0.00296205

$$$$
ZINC001211869745
                    3D
 Schrodinger Suite 2019-4.
 55 59  0  0  1  0            999 V2000
    2.7927    2.7218    0.7902 C   0  0  0  0  0  0
    3.1772    2.5412   -0.5350 C   0  0  0  0  0  0
    3.5632    1.2758   -0.9844 C   0  0  0  0  0  0
    3.5687    0.1740   -0.1143 C   0  0  0  0  0  0
    3.8848   -1.2163   -0.6555 C   0  0  1  0  0  0
    5.2259   -1.7566   -0.1057 C   0  0  0  0  0  0
    5.0429   -3.0447    0.6935 C   0  0  0  0  0  0
    4.2571   -4.0971   -0.0988 C   0  0  0  0  0  0
    2.7197   -2.2330   -0.4396 C   0  0  1  0  0  0
    1.4579   -1.7796   -1.1237 C   0  0  0  0  0  0
    0.2728   -1.5638   -0.6053 N   0  0  0  0  0  0
   -0.4037   -0.9562   -1.6387 C   0  0  0  0  0  0
   -1.7120   -0.3655   -1.4145 C   0  0  0  0  0  0
   -2.0728    0.8528   -2.0009 C   0  0  0  0  0  0
   -3.2414    1.5070   -1.5850 C   0  0  0  0  0  0
   -4.0829    0.9636   -0.5951 C   0  0  0  0  0  0
   -5.1484    1.7390   -0.1132 N   0  0  0  0  0  0
   -4.6487    2.8332    0.7549 C   0  0  0  0  0  0
   -5.6319    2.9005    1.9199 C   0  0  0  0  0  0
   -6.1336    1.4728    2.0303 C   0  0  0  0  0  0
   -6.2773    1.0798    0.5667 C   0  0  0  0  0  0
   -3.7503   -0.2959   -0.0853 C   0  0  0  0  0  0
   -2.5798   -0.9514   -0.4854 C   0  0  0  0  0  0
    0.3008   -0.8676   -2.7787 N   0  0  0  0  0  0
    1.5375   -1.4273   -2.4441 O   0  0  0  0  0  0
    3.2303    0.3832    1.2306 C   0  0  0  0  0  0
    2.8414    1.6501    1.6790 C   0  0  0  0  0  0
    2.4568    3.6988    1.1282 H   0  0  0  0  0  0
    3.1597    3.3788   -1.2278 H   0  0  0  0  0  0
    3.8371    1.1527   -2.0317 H   0  0  0  0  0  0
    4.0302   -1.1084   -1.7424 H   0  0  0  0  0  0
    5.8846   -1.9783   -0.9543 H   0  0  0  0  0  0
    5.7573   -1.0131    0.4992 H   0  0  0  0  0  0
    4.5287   -2.8258    1.6369 H   0  0  0  0  0  0
    6.0211   -3.4535    0.9655 H   0  0  0  0  0  0
    3.8769   -4.8495    0.6030 H   0  0  0  0  0  0
    4.9344   -4.6282   -0.7812 H   0  0  0  0  0  0
    2.4648   -2.2956    0.6272 H   0  0  0  0  0  0
   -1.4231    1.3373   -2.7272 H   0  0  0  0  0  0
   -3.4840    2.4768   -2.0130 H   0  0  0  0  0  0
   -3.6447    2.6252    1.1543 H   0  0  0  0  0  0
   -4.6155    3.7807    0.2052 H   0  0  0  0  0  0
   -5.1597    3.2523    2.8409 H   0  0  0  0  0  0
   -6.4593    3.5741    1.6761 H   0  0  0  0  0  0
   -5.3876    0.8438    2.5319 H   0  0  0  0  0  0
   -7.0759    1.3990    2.5802 H   0  0  0  0  0  0
   -6.3497   -0.0016    0.4217 H   0  0  0  0  0  0
   -7.2035    1.5076    0.1645 H   0  0  0  0  0  0
   -4.3422   -0.7670    0.6931 H   0  0  0  0  0  0
   -2.3205   -1.9023   -0.0249 H   0  0  0  0  0  0
    3.2388   -0.4365    1.9442 H   0  0  0  0  0  0
    2.5625    1.7983    2.7188 H   0  0  0  0  0  0
    3.1220   -3.5905   -0.8953 N   0  3  0  0  0  0
    3.3978   -3.5457   -1.8834 H   0  0  0  0  0  0
    2.3257   -4.2302   -0.7909 H   0  0  0  0  0  0
  1  2  2  0  0  0
  1 27  1  0  0  0
  1 28  1  0  0  0
  2  3  1  0  0  0
  2 29  1  0  0  0
  3  4  2  0  0  0
  3 30  1  0  0  0
  4  5  1  0  0  0
  4 26  1  0  0  0
  5  6  1  0  0  0
  5  9  1  0  0  0
  5 31  1  0  0  0
  6  7  1  0  0  0
  6 32  1  0  0  0
  6 33  1  0  0  0
  7  8  1  0  0  0
  7 34  1  0  0  0
  7 35  1  0  0  0
  8 36  1  0  0  0
  8 37  1  0  0  0
  8 53  1  0  0  0
  9 10  1  0  0  0
  9 38  1  0  0  0
  9 53  1  0  0  0
 10 11  2  0  0  0
 10 25  1  0  0  0
 11 12  1  0  0  0
 12 13  1  0  0  0
 12 24  2  0  0  0
 13 14  2  0  0  0
 13 23  1  0  0  0
 14 15  1  0  0  0
 14 39  1  0  0  0
 15 16  2  0  0  0
 15 40  1  0  0  0
 16 17  1  0  0  0
 16 22  1  0  0  0
 17 18  1  0  0  0
 17 21  1  0  0  0
 18 19  1  0  0  0
 18 41  1  0  0  0
 18 42  1  0  0  0
 19 20  1  0  0  0
 19 43  1  0  0  0
 19 44  1  0  0  0
 20 21  1  0  0  0
 20 45  1  0  0  0
 20 46  1  0  0  0
 21 47  1  0  0  0
 21 48  1  0  0  0
 22 23  2  0  0  0
 22 49  1  0  0  0
 23 50  1  0  0  0
 24 25  1  0  0  0
 26 27  2  0  0  0
 26 51  1  0  0  0
 27 52  1  0  0  0
 53 54  1  0  0  0
 53 55  1  0  0  0
M  CHG  1  53   1
M  END
> <energy>
107.582

> <i_ionizer_Ion_state_n>
1

> <i_ionizer_Tot_Q>
1

> <s_ionizer_Ion_centers>
53

> <s_ionizer_Ion_types>
N5

> <s_ionizer_Ion_ctrs_in>
9

> <r_ionizer_Ionization_penalty>
0.00311085

> <r_ionizer_Ionization_penalty_charging>
0.000148807

> <r_ionizer_Ionization_penalty_neutral>
0.00296205

$$$$
ZINC001211869746
                    3D
 Schrodinger Suite 2019-4.
 55 59  0  0  1  0            999 V2000
    1.6189    2.9470    2.2458 C   0  0  0  0  0  0
    0.9548    2.3994    1.1537 C   0  0  0  0  0  0
    1.6110    1.4984    0.3184 C   0  0  0  0  0  0
    2.9454    1.1362    0.5543 C   0  0  0  0  0  0
    3.6733    0.1357   -0.3335 C   0  0  2  0  0  0
    3.1751    0.0931   -1.7933 C   0  0  0  0  0  0
    4.0531   -0.8048   -2.6630 C   0  0  0  0  0  0
    4.9451   -1.7395   -1.8474 C   0  0  0  0  0  0
    3.7530   -1.3114    0.2609 C   0  0  1  0  0  0
    2.4330   -1.7345    0.8451 C   0  0  0  0  0  0
    1.2662   -1.8633    0.2534 N   0  0  0  0  0  0
    0.3975   -1.8745    1.3186 C   0  0  0  0  0  0
   -1.0206   -1.6416    1.0934 C   0  0  0  0  0  0
   -1.6590   -2.2411    0.0093 C   0  0  0  0  0  0
   -2.9512   -1.8478   -0.3525 C   0  0  0  0  0  0
   -3.6227   -0.8124    0.3205 C   0  0  0  0  0  0
   -4.8496   -0.3719   -0.1906 N   0  0  0  0  0  0
   -4.7733    0.0259   -1.6191 C   0  0  0  0  0  0
   -5.5941    1.3071   -1.7238 C   0  0  0  0  0  0
   -5.5899    1.8596   -0.3101 C   0  0  0  0  0  0
   -5.6843    0.5943    0.5288 C   0  0  0  0  0  0
   -2.9944   -0.2690    1.4503 C   0  0  0  0  0  0
   -1.7097   -0.6825    1.8409 C   0  0  0  0  0  0
    0.9914   -1.8999    2.5194 N   0  0  0  0  0  0
    2.3539   -1.8156    2.2073 O   0  0  0  0  0  0
    3.5986    1.6820    1.6703 C   0  0  0  0  0  0
    2.9359    2.5786    2.5100 C   0  0  0  0  0  0
    1.1126    3.6565    2.8937 H   0  0  0  0  0  0
   -0.0793    2.6630    0.9526 H   0  0  0  0  0  0
    1.0499    1.0602   -0.5041 H   0  0  0  0  0  0
    4.7048    0.5148   -0.3956 H   0  0  0  0  0  0
    3.1346    1.1035   -2.2168 H   0  0  0  0  0  0
    2.1516   -0.2974   -1.8352 H   0  0  0  0  0  0
    3.4117   -1.3857   -3.3331 H   0  0  0  0  0  0
    4.6815   -0.1848   -3.3112 H   0  0  0  0  0  0
    5.3047   -2.5451   -2.4931 H   0  0  0  0  0  0
    5.8350   -1.2036   -1.4991 H   0  0  0  0  0  0
    4.4845   -1.2765    1.0809 H   0  0  0  0  0  0
   -1.1425   -2.9831   -0.5964 H   0  0  0  0  0  0
   -3.4235   -2.3337   -1.2028 H   0  0  0  0  0  0
   -5.1907   -0.7602   -2.2607 H   0  0  0  0  0  0
   -3.7440    0.2331   -1.9457 H   0  0  0  0  0  0
   -5.1736    2.0080   -2.4529 H   0  0  0  0  0  0
   -6.6178    1.0704   -2.0374 H   0  0  0  0  0  0
   -4.6433    2.3826   -0.1171 H   0  0  0  0  0  0
   -6.4190    2.5475   -0.1266 H   0  0  0  0  0  0
   -6.7151    0.2140    0.5264 H   0  0  0  0  0  0
   -5.4245    0.7671    1.5742 H   0  0  0  0  0  0
   -3.4394    0.5381    2.0229 H   0  0  0  0  0  0
   -1.2309   -0.1947    2.6881 H   0  0  0  0  0  0
    4.6240    1.3988    1.8983 H   0  0  0  0  0  0
    3.4531    2.9873    3.3734 H   0  0  0  0  0  0
    4.2312   -2.3461   -0.7115 N   0  3  0  0  0  0
    3.4214   -2.8671   -1.0680 H   0  0  0  0  0  0
    4.8661   -2.9907   -0.2260 H   0  0  0  0  0  0
  1  2  2  0  0  0
  1 27  1  0  0  0
  1 28  1  0  0  0
  2  3  1  0  0  0
  2 29  1  0  0  0
  3  4  2  0  0  0
  3 30  1  0  0  0
  4  5  1  0  0  0
  4 26  1  0  0  0
  5  6  1  0  0  0
  5  9  1  0  0  0
  5 31  1  0  0  0
  6  7  1  0  0  0
  6 32  1  0  0  0
  6 33  1  0  0  0
  7  8  1  0  0  0
  7 34  1  0  0  0
  7 35  1  0  0  0
  8 36  1  0  0  0
  8 37  1  0  0  0
  8 53  1  0  0  0
  9 10  1  0  0  0
  9 38  1  0  0  0
  9 53  1  0  0  0
 10 11  2  0  0  0
 10 25  1  0  0  0
 11 12  1  0  0  0
 12 13  1  0  0  0
 12 24  2  0  0  0
 13 14  2  0  0  0
 13 23  1  0  0  0
 14 15  1  0  0  0
 14 39  1  0  0  0
 15 16  2  0  0  0
 15 40  1  0  0  0
 16 17  1  0  0  0
 16 22  1  0  0  0
 17 18  1  0  0  0
 17 21  1  0  0  0
 18 19  1  0  0  0
 18 41  1  0  0  0
 18 42  1  0  0  0
 19 20  1  0  0  0
 19 43  1  0  0  0
 19 44  1  0  0  0
 20 21  1  0  0  0
 20 45  1  0  0  0
 20 46  1  0  0  0
 21 47  1  0  0  0
 21 48  1  0  0  0
 22 23  2  0  0  0
 22 49  1  0  0  0
 23 50  1  0  0  0
 24 25  1  0  0  0
 26 27  2  0  0  0
 26 51  1  0  0  0
 27 52  1  0  0  0
 53 54  1  0  0  0
 53 55  1  0  0  0
M  CHG  1  53   1
M  END
> <energy>
109.882

> <i_ionizer_Ion_state_n>
1

> <i_ionizer_Tot_Q>
1

> <s_ionizer_Ion_centers>
53

> <s_ionizer_Ion_types>
N5

> <s_ionizer_Ion_ctrs_in>
9

> <r_ionizer_Ionization_penalty>
0.00311085

> <r_ionizer_Ionization_penalty_charging>
0.000148807

> <r_ionizer_Ionization_penalty_neutral>
0.00296205

$$$$
ZINC001211869775
                    3D
 Schrodinger Suite 2019-4.
 44 46  0  0  1  0            999 V2000
    0.8680   -3.0548    2.4596 C   0  0  0  0  0  0
    1.7338   -2.5165    1.3258 C   0  0  0  0  0  0
    1.1354   -2.8269   -0.0490 C   0  0  0  0  0  0
    1.9540   -2.2284   -1.1958 C   0  0  0  0  0  0
    1.9984   -0.8057   -1.0339 O   0  0  0  0  0  0
    1.9593   -0.0642   -2.1634 C   0  0  0  0  0  0
    1.9880   -0.4968   -3.3063 O   0  0  0  0  0  0
    1.8913    1.2737   -1.9128 N   0  0  0  0  0  0
    1.5508    1.8371   -0.6155 C   0  0  2  0  0  0
    0.0648    1.7333   -0.3963 C   0  0  0  0  0  0
   -0.7103    0.6683   -0.3693 N   0  0  0  0  0  0
   -1.9482    1.1968   -0.0667 C   0  0  0  0  0  0
   -3.1352    0.3577    0.0632 C   0  0  0  0  0  0
   -3.1588   -0.9185   -0.5258 C   0  0  0  0  0  0
   -4.3013   -1.7171   -0.4377 C   0  0  0  0  0  0
   -4.3205   -3.2619   -1.1878 Cl  0  0  0  0  0  0
   -5.4322   -1.2680    0.2439 C   0  0  0  0  0  0
   -5.4141   -0.0109    0.8492 C   0  0  0  0  0  0
   -4.2722    0.7877    0.7593 C   0  0  0  0  0  0
   -4.2983    1.9755    1.3818 F   0  0  0  0  0  0
   -1.9425    2.5338    0.0646 N   0  0  0  0  0  0
   -0.6140    2.8892   -0.1479 O   0  0  0  0  0  0
    2.1453    3.2287   -0.5410 C   0  0  0  0  0  0
    3.6122    3.4090   -0.2241 C   0  0  0  0  0  0
    2.5756    3.7946    0.7907 C   0  0  0  0  0  0
   -0.1334   -2.6110    2.4365 H   0  0  0  0  0  0
    0.7658   -4.1427    2.3939 H   0  0  0  0  0  0
    1.3222   -2.8176    3.4274 H   0  0  0  0  0  0
    2.7334   -2.9610    1.4032 H   0  0  0  0  0  0
    1.8492   -1.4350    1.4605 H   0  0  0  0  0  0
    0.1158   -2.4250   -0.0866 H   0  0  0  0  0  0
    1.0712   -3.9121   -0.1801 H   0  0  0  0  0  0
    2.9810   -2.6090   -1.1702 H   0  0  0  0  0  0
    1.4929   -2.5173   -2.1473 H   0  0  0  0  0  0
    1.7611    1.8323   -2.7422 H   0  0  0  0  0  0
    2.0270    1.2222    0.1583 H   0  0  0  0  0  0
   -2.2864   -1.2844   -1.0671 H   0  0  0  0  0  0
   -6.3227   -1.8860    0.3110 H   0  0  0  0  0  0
   -6.2795    0.3547    1.3937 H   0  0  0  0  0  0
    1.7045    3.9114   -1.2612 H   0  0  0  0  0  0
    4.2130    2.5267   -0.0306 H   0  0  0  0  0  0
    4.1526    4.2091   -0.7174 H   0  0  0  0  0  0
    2.4185    4.8516    0.9751 H   0  0  0  0  0  0
    2.4843    3.1773    1.6784 H   0  0  0  0  0  0
  1  2  1  0  0  0
  1 26  1  0  0  0
  1 27  1  0  0  0
  1 28  1  0  0  0
  2  3  1  0  0  0
  2 29  1  0  0  0
  2 30  1  0  0  0
  3  4  1  0  0  0
  3 31  1  0  0  0
  3 32  1  0  0  0
  4  5  1  0  0  0
  4 33  1  0  0  0
  4 34  1  0  0  0
  5  6  1  0  0  0
  6  7  2  0  0  0
  6  8  1  0  0  0
  8  9  1  0  0  0
  8 35  1  0  0  0
  9 10  1  0  0  0
  9 23  1  0  0  0
  9 36  1  0  0  0
 10 11  2  0  0  0
 10 22  1  0  0  0
 11 12  1  0  0  0
 12 13  1  0  0  0
 12 21  2  0  0  0
 13 14  2  0  0  0
 13 19  1  0  0  0
 14 15  1  0  0  0
 14 37  1  0  0  0
 15 16  1  0  0  0
 15 17  2  0  0  0
 17 18  1  0  0  0
 17 38  1  0  0  0
 18 19  2  0  0  0
 18 39  1  0  0  0
 19 20  1  0  0  0
 21 22  1  0  0  0
 23 24  1  0  0  0
 23 25  1  0  0  0
 23 40  1  0  0  0
 24 25  1  0  0  0
 24 41  1  0  0  0
 24 42  1  0  0  0
 25 43  1  0  0  0
 25 44  1  0  0  0
M  END
> <energy>
-11.9192

> <i_ionizer_Ion_state_n>
0

> <i_ionizer_Tot_Q>
0

> <s_ionizer_Ion_centers>


> <s_ionizer_Ion_types>


> <s_ionizer_Ion_ctrs_in>


> <r_ionizer_Ionization_penalty>
0

> <r_ionizer_Ionization_penalty_charging>
0

> <r_ionizer_Ionization_penalty_neutral>
0

$$$$
ZINC001211869776
                    3D
 Schrodinger Suite 2019-4.
 44 46  0  0  1  0            999 V2000
   -2.3378   -1.9697   -3.1603 C   0  0  0  0  0  0
   -2.3581   -0.4697   -3.3912 C   0  0  0  0  0  0
   -2.3280    0.3403   -2.0929 C   0  0  0  0  0  0
   -2.1125    1.8315   -2.3811 C   0  0  0  0  0  0
   -1.4905    2.4955   -1.2608 O   0  0  0  0  0  0
   -0.1607    2.2495   -1.0991 C   0  0  0  0  0  0
    0.5222    1.5696   -1.8361 O   0  0  0  0  0  0
    0.2600    2.8274    0.0671 N   0  0  0  0  0  0
    1.4220    2.3436    0.8088 C   0  0  1  0  0  0
    1.3344    0.8664    1.0549 C   0  0  0  0  0  0
    0.6176    0.2176    1.9520 N   0  0  0  0  0  0
    0.9189   -1.1032    1.6714 C   0  0  0  0  0  0
    0.3222   -2.1942    2.4258 C   0  0  0  0  0  0
   -0.8925   -1.9841    3.0962 C   0  0  0  0  0  0
   -1.4920   -3.0238    3.8100 C   0  0  0  0  0  0
   -2.9837   -2.7573    4.6109 Cl  0  0  0  0  0  0
   -0.8874   -4.2789    3.8754 C   0  0  0  0  0  0
    0.3273   -4.4908    3.2208 C   0  0  0  0  0  0
    0.9297   -3.4504    2.5132 C   0  0  0  0  0  0
    2.1031   -3.7012    1.9152 F   0  0  0  0  0  0
    1.7797   -1.2670    0.6547 N   0  0  0  0  0  0
    2.0461    0.0355    0.2395 O   0  0  0  0  0  0
    2.7505    2.9636    0.4307 C   0  0  0  0  0  0
    3.0210    3.6621   -0.8839 C   0  0  0  0  0  0
    3.7242    2.3696   -0.5704 C   0  0  0  0  0  0
   -2.3892   -2.5067   -4.1169 H   0  0  0  0  0  0
   -3.1911   -2.2884   -2.5535 H   0  0  0  0  0  0
   -1.4205   -2.2808   -2.6487 H   0  0  0  0  0  0
   -1.4919   -0.2211   -4.0098 H   0  0  0  0  0  0
   -3.2528   -0.2030   -3.9553 H   0  0  0  0  0  0
   -3.2809    0.2111   -1.5624 H   0  0  0  0  0  0
   -1.5571   -0.0433   -1.4205 H   0  0  0  0  0  0
   -3.0903    2.3074   -2.5365 H   0  0  0  0  0  0
   -1.5218    2.0045   -3.2920 H   0  0  0  0  0  0
   -0.4777    3.2575    0.6051 H   0  0  0  0  0  0
    1.2407    2.7611    1.8132 H   0  0  0  0  0  0
   -1.3850   -1.0131    3.0464 H   0  0  0  0  0  0
   -1.3563   -5.0974    4.4170 H   0  0  0  0  0  0
    0.8086   -5.4637    3.2585 H   0  0  0  0  0  0
    3.2214    3.3849    1.3215 H   0  0  0  0  0  0
    2.3025    3.6064   -1.6934 H   0  0  0  0  0  0
    3.5904    4.5822   -0.8543 H   0  0  0  0  0  0
    4.7731    2.4050   -0.3049 H   0  0  0  0  0  0
    3.4424    1.5156   -1.1843 H   0  0  0  0  0  0
  1  2  1  0  0  0
  1 26  1  0  0  0
  1 27  1  0  0  0
  1 28  1  0  0  0
  2  3  1  0  0  0
  2 29  1  0  0  0
  2 30  1  0  0  0
  3  4  1  0  0  0
  3 31  1  0  0  0
  3 32  1  0  0  0
  4  5  1  0  0  0
  4 33  1  0  0  0
  4 34  1  0  0  0
  5  6  1  0  0  0
  6  7  2  0  0  0
  6  8  1  0  0  0
  8  9  1  0  0  0
  8 35  1  0  0  0
  9 10  1  0  0  0
  9 23  1  0  0  0
  9 36  1  0  0  0
 10 11  2  0  0  0
 10 22  1  0  0  0
 11 12  1  0  0  0
 12 13  1  0  0  0
 12 21  2  0  0  0
 13 14  2  0  0  0
 13 19  1  0  0  0
 14 15  1  0  0  0
 14 37  1  0  0  0
 15 16  1  0  0  0
 15 17  2  0  0  0
 17 18  1  0  0  0
 17 38  1  0  0  0
 18 19  2  0  0  0
 18 39  1  0  0  0
 19 20  1  0  0  0
 21 22  1  0  0  0
 23 24  1  0  0  0
 23 25  1  0  0  0
 23 40  1  0  0  0
 24 25  1  0  0  0
 24 41  1  0  0  0
 24 42  1  0  0  0
 25 43  1  0  0  0
 25 44  1  0  0  0
M  END
> <energy>
-2.81142

> <i_ionizer_Ion_state_n>
0

> <i_ionizer_Tot_Q>
0

> <s_ionizer_Ion_centers>


> <s_ionizer_Ion_types>


> <s_ionizer_Ion_ctrs_in>


> <r_ionizer_Ionization_penalty>
0

> <r_ionizer_Ionization_penalty_charging>
0

> <r_ionizer_Ionization_penalty_neutral>
0

$$$$
ZINC001211869777
                    3D
 Schrodinger Suite 2019-4.
 49 53  0  0  1  0            999 V2000
    6.0203   -1.9836    3.0720 C   0  0  0  0  0  0
    5.7579   -1.3223    4.1720 N   0  0  0  0  0  0
    4.9716   -0.2860    3.7363 C   0  0  0  0  0  0
    4.7921   -0.3560    2.3677 C   0  0  0  0  0  0
    4.0142    0.4010    1.3929 C   0  0  0  0  0  0
    3.9089   -0.0001    0.0548 C   0  0  0  0  0  0
    2.9491    0.5751   -0.7902 C   0  0  0  0  0  0
    2.0737    1.5565   -0.3037 C   0  0  0  0  0  0
    0.8564    1.9070   -1.0273 C   0  0  0  0  0  0
    0.6994    1.8320   -2.3570 N   0  0  0  0  0  0
   -0.6930    1.7808   -2.5165 O   0  0  0  0  0  0
   -1.2284    1.8460   -1.2610 C   0  0  0  0  0  0
   -2.6475    1.3479   -1.0900 C   0  0  1  0  0  0
   -4.2480    1.8355    0.7403 C   0  0  0  0  0  0
   -4.9259    0.5037    0.4604 C   0  0  0  0  0  0
   -3.9323   -0.5791    0.0480 C   0  0  0  0  0  0
   -2.5584   -0.0213   -0.3456 C   0  0  1  0  0  0
   -1.7504   -1.0688   -1.0996 C   0  0  0  0  0  0
   -2.1665   -1.5595   -2.3454 C   0  0  0  0  0  0
   -1.3909   -2.4944   -3.0368 C   0  0  0  0  0  0
   -0.1920   -2.9469   -2.4966 C   0  0  0  0  0  0
    0.2381   -2.4687   -1.2627 C   0  0  0  0  0  0
   -0.5396   -1.5385   -0.5649 C   0  0  0  0  0  0
   -0.3214    2.0448   -0.3260 N   0  0  0  0  0  0
    2.2658    2.0490    0.9917 C   0  0  0  0  0  0
    3.2344    1.4853    1.8261 C   0  0  0  0  0  0
    5.4727   -1.4661    1.9314 O   0  0  0  0  0  0
    6.6065   -2.8851    2.9621 H   0  0  0  0  0  0
    4.5648    0.4409    4.4241 H   0  0  0  0  0  0
    4.5174   -0.8184   -0.3272 H   0  0  0  0  0  0
    2.8270    0.1819   -1.8019 H   0  0  0  0  0  0
   -3.0817    1.1882   -2.0842 H   0  0  0  0  0  0
   -3.5794    1.7353    1.6029 H   0  0  0  0  0  0
   -5.0048    2.5732    1.0343 H   0  0  0  0  0  0
   -5.6777    0.6219   -0.3288 H   0  0  0  0  0  0
   -5.4731    0.1695    1.3477 H   0  0  0  0  0  0
   -4.3873   -1.1695   -0.7528 H   0  0  0  0  0  0
   -3.7874   -1.2828    0.8790 H   0  0  0  0  0  0
   -2.0295    0.1717    0.6023 H   0  0  0  0  0  0
   -3.0987   -1.2293   -2.7968 H   0  0  0  0  0  0
   -1.7199   -2.8690   -4.0024 H   0  0  0  0  0  0
    0.4144   -3.6718   -3.0336 H   0  0  0  0  0  0
    1.1733   -2.8166   -0.8316 H   0  0  0  0  0  0
   -0.1793   -1.1677    0.3948 H   0  0  0  0  0  0
    1.6050    2.8197    1.3916 H   0  0  0  0  0  0
    3.3136    1.8544    2.8455 H   0  0  0  0  0  0
   -3.5079    2.3820   -0.4213 N   0  3  0  0  0  0
   -2.9089    3.1508   -0.0983 H   0  0  0  0  0  0
   -4.1853    2.7398   -1.1049 H   0  0  0  0  0  0
  1  2  2  0  0  0
  1 27  1  0  0  0
  1 28  1  0  0  0
  2  3  1  0  0  0
  3  4  2  0  0  0
  3 29  1  0  0  0
  4  5  1  0  0  0
  4 27  1  0  0  0
  5  6  2  0  0  0
  5 26  1  0  0  0
  6  7  1  0  0  0
  6 30  1  0  0  0
  7  8  2  0  0  0
  7 31  1  0  0  0
  8  9  1  0  0  0
  8 25  1  0  0  0
  9 10  2  0  0  0
  9 24  1  0  0  0
 10 11  1  0  0  0
 11 12  1  0  0  0
 12 13  1  0  0  0
 12 24  2  0  0  0
 13 17  1  0  0  0
 13 32  1  0  0  0
 13 47  1  0  0  0
 14 15  1  0  0  0
 14 33  1  0  0  0
 14 34  1  0  0  0
 14 47  1  0  0  0
 15 16  1  0  0  0
 15 35  1  0  0  0
 15 36  1  0  0  0
 16 17  1  0  0  0
 16 37  1  0  0  0
 16 38  1  0  0  0
 17 18  1  0  0  0
 17 39  1  0  0  0
 18 19  2  0  0  0
 18 23  1  0  0  0
 19 20  1  0  0  0
 19 40  1  0  0  0
 20 21  2  0  0  0
 20 41  1  0  0  0
 21 22  1  0  0  0
 21 42  1  0  0  0
 22 23  2  0  0  0
 22 43  1  0  0  0
 23 44  1  0  0  0
 25 26  2  0  0  0
 25 45  1  0  0  0
 26 46  1  0  0  0
 47 48  1  0  0  0
 47 49  1  0  0  0
M  CHG  1  47   1
M  END
> <energy>
119.787

> <i_ionizer_Ion_state_n>
1

> <i_ionizer_Tot_Q>
1

> <s_ionizer_Ion_centers>
47

> <s_ionizer_Ion_types>
N5

> <s_ionizer_Ion_ctrs_in>
14

> <r_ionizer_Ionization_penalty>
0.000148807

> <r_ionizer_Ionization_penalty_charging>
0.000148807

> <r_ionizer_Ionization_penalty_neutral>
0

$$$$
ZINC001211869778
                    3D
 Schrodinger Suite 2019-4.
 49 53  0  0  1  0            999 V2000
    7.5650   -1.6799   -2.7693 C   0  0  0  0  0  0
    7.3058   -1.2362   -3.9757 N   0  0  0  0  0  0
    6.2645   -0.3680   -3.7756 C   0  0  0  0  0  0
    5.9308   -0.3163   -2.4364 C   0  0  0  0  0  0
    4.8628    0.3112   -1.6675 C   0  0  0  0  0  0
    3.9536    1.1567   -2.3152 C   0  0  0  0  0  0
    2.7557    1.5293   -1.7035 C   0  0  0  0  0  0
    2.4390    1.0536   -0.4271 C   0  0  0  0  0  0
    1.0415    1.0680    0.0086 C   0  0  0  0  0  0
    0.0875    1.8407   -0.5418 N   0  0  0  0  0  0
   -1.0993    1.1644   -0.2495 O   0  0  0  0  0  0
   -0.7495    0.0724    0.4897 C   0  0  0  0  0  0
   -1.7696   -1.0420    0.6263 C   0  0  2  0  0  0
   -0.9798   -2.0126    2.7335 C   0  0  0  0  0  0
   -2.3036   -1.7082    3.4198 C   0  0  0  0  0  0
   -2.9714   -0.4814    2.7914 C   0  0  0  0  0  0
   -3.1366   -0.6652    1.2689 C   0  0  1  0  0  0
   -3.9041    0.4368    0.5490 C   0  0  0  0  0  0
   -4.2977    0.2636   -0.7908 C   0  0  0  0  0  0
   -5.0333    1.2471   -1.4576 C   0  0  0  0  0  0
   -5.3860    2.4227   -0.8036 C   0  0  0  0  0  0
   -4.9982    2.6186    0.5152 C   0  0  0  0  0  0
   -4.2602    1.6400    1.1849 C   0  0  0  0  0  0
    0.5430    0.0437    0.7700 N   0  0  0  0  0  0
    3.4228    0.3588    0.2972 C   0  0  0  0  0  0
    4.6288   -0.0051   -0.3204 C   0  0  0  0  0  0
    6.7832   -1.1662   -1.7772 O   0  0  0  0  0  0
    8.3115   -2.4047   -2.4706 H   0  0  0  0  0  0
    5.7939    0.1391   -4.6071 H   0  0  0  0  0  0
    4.1214    1.4785   -3.3387 H   0  0  0  0  0  0
    2.0258    2.0971   -2.2801 H   0  0  0  0  0  0
   -1.9689   -1.3678   -0.4056 H   0  0  0  0  0  0
   -0.5198   -2.9067    3.1729 H   0  0  0  0  0  0
   -0.2805   -1.1898    2.9178 H   0  0  0  0  0  0
   -2.9680   -2.5775    3.3370 H   0  0  0  0  0  0
   -2.1360   -1.5274    4.4880 H   0  0  0  0  0  0
   -3.9407   -0.3118    3.2768 H   0  0  0  0  0  0
   -2.3555    0.4049    2.9887 H   0  0  0  0  0  0
   -3.7885   -1.5483    1.1624 H   0  0  0  0  0  0
   -4.0293   -0.6402   -1.3422 H   0  0  0  0  0  0
   -5.3347    1.0983   -2.4889 H   0  0  0  0  0  0
   -5.9601    3.1851   -1.3194 H   0  0  0  0  0  0
   -5.2694    3.5344    1.0359 H   0  0  0  0  0  0
   -3.9774    1.8452    2.2134 H   0  0  0  0  0  0
    3.2176    0.0164    1.3131 H   0  0  0  0  0  0
    5.3418   -0.6145    0.2339 H   0  0  0  0  0  0
   -1.1719   -2.2495    1.2915 N   0  3  0  0  0  0
   -1.8013   -3.0505    1.1632 H   0  0  0  0  0  0
   -0.2631   -2.4558    0.8606 H   0  0  0  0  0  0
  1  2  2  0  0  0
  1 27  1  0  0  0
  1 28  1  0  0  0
  2  3  1  0  0  0
  3  4  2  0  0  0
  3 29  1  0  0  0
  4  5  1  0  0  0
  4 27  1  0  0  0
  5  6  2  0  0  0
  5 26  1  0  0  0
  6  7  1  0  0  0
  6 30  1  0  0  0
  7  8  2  0  0  0
  7 31  1  0  0  0
  8  9  1  0  0  0
  8 25  1  0  0  0
  9 10  2  0  0  0
  9 24  1  0  0  0
 10 11  1  0  0  0
 11 12  1  0  0  0
 12 13  1  0  0  0
 12 24  2  0  0  0
 13 17  1  0  0  0
 13 32  1  0  0  0
 13 47  1  0  0  0
 14 15  1  0  0  0
 14 33  1  0  0  0
 14 34  1  0  0  0
 14 47  1  0  0  0
 15 16  1  0  0  0
 15 35  1  0  0  0
 15 36  1  0  0  0
 16 17  1  0  0  0
 16 37  1  0  0  0
 16 38  1  0  0  0
 17 18  1  0  0  0
 17 39  1  0  0  0
 18 19  2  0  0  0
 18 23  1  0  0  0
 19 20  1  0  0  0
 19 40  1  0  0  0
 20 21  2  0  0  0
 20 41  1  0  0  0
 21 22  1  0  0  0
 21 42  1  0  0  0
 22 23  2  0  0  0
 22 43  1  0  0  0
 23 44  1  0  0  0
 25 26  2  0  0  0
 25 45  1  0  0  0
 26 46  1  0  0  0
 47 48  1  0  0  0
 47 49  1  0  0  0
M  CHG  1  47   1
M  END
> <energy>
122.105

> <i_ionizer_Ion_state_n>
1

> <i_ionizer_Tot_Q>
1

> <s_ionizer_Ion_centers>
47

> <s_ionizer_Ion_types>
N5

> <s_ionizer_Ion_ctrs_in>
14

> <r_ionizer_Ionization_penalty>
0.000148807

> <r_ionizer_Ionization_penalty_charging>
0.000148807

> <r_ionizer_Ionization_penalty_neutral>
0

$$$$
ZINC001211869779
                    3D
 Schrodinger Suite 2019-4.
 49 53  0  0  1  0            999 V2000
    6.5633   -0.6843   -3.5861 C   0  0  0  0  0  0
    6.8210   -1.6943   -2.7855 N   0  0  0  0  0  0
    5.9257   -1.5119   -1.7564 C   0  0  0  0  0  0
    5.1714   -0.3755   -1.9767 C   0  0  0  0  0  0
    4.1012    0.3153   -1.2798 C   0  0  0  0  0  0
    3.9326    0.1441    0.0997 C   0  0  0  0  0  0
    2.8482    0.7267    0.7617 C   0  0  0  0  0  0
    1.9038    1.4800    0.0564 C   0  0  0  0  0  0
    0.6597    1.8855    0.7008 C   0  0  0  0  0  0
    0.5039    2.0622    2.0241 N   0  0  0  0  0  0
   -0.8839    2.0317    2.1953 O   0  0  0  0  0  0
   -1.4203    1.8411    0.9517 C   0  0  0  0  0  0
   -2.8319    1.3111    0.8992 C   0  0  2  0  0  0
   -4.8562    1.6031   -0.4964 C   0  0  0  0  0  0
   -5.3277    0.3106    0.1594 C   0  0  0  0  0  0
   -4.2180   -0.7356    0.2192 C   0  0  0  0  0  0
   -2.8141   -0.1072    0.2389 C   0  0  2  0  0  0
   -1.7998   -1.0652    0.8504 C   0  0  0  0  0  0
   -0.7708   -1.5946    0.0534 C   0  0  0  0  0  0
    0.2236   -2.3971    0.6141 C   0  0  0  0  0  0
    0.2003   -2.6856    1.9768 C   0  0  0  0  0  0
   -0.8247   -2.1846    2.7751 C   0  0  0  0  0  0
   -1.8215   -1.3822    2.2166 C   0  0  0  0  0  0
   -0.5207    1.8708   -0.0068 N   0  0  0  0  0  0
    2.0937    1.6931   -1.3146 C   0  0  0  0  0  0
    3.1867    1.1208   -1.9742 C   0  0  0  0  0  0
    5.5798    0.1564   -3.1708 O   0  0  0  0  0  0
    7.0261   -0.4404   -4.5293 H   0  0  0  0  0  0
    5.8650   -2.2072   -0.9301 H   0  0  0  0  0  0
    4.6216   -0.4696    0.6732 H   0  0  0  0  0  0
    2.7134    0.5321    1.8246 H   0  0  0  0  0  0
   -3.1953    1.2109    1.9298 H   0  0  0  0  0  0
   -5.6907    2.3093   -0.5682 H   0  0  0  0  0  0
   -4.5479    1.3888   -1.5283 H   0  0  0  0  0  0
   -6.1810   -0.1026   -0.3878 H   0  0  0  0  0  0
   -5.6798    0.5148    1.1767 H   0  0  0  0  0  0
   -4.2854   -1.4026   -0.6485 H   0  0  0  0  0  0
   -4.3973   -1.3781    1.0869 H   0  0  0  0  0  0
   -2.5259    0.0441   -0.8129 H   0  0  0  0  0  0
   -0.7139   -1.3548   -1.0080 H   0  0  0  0  0  0
    1.0246   -2.7808   -0.0128 H   0  0  0  0  0  0
    0.9841   -3.2970    2.4133 H   0  0  0  0  0  0
   -0.8381   -2.4062    3.8402 H   0  0  0  0  0  0
   -2.5991   -0.9958    2.8717 H   0  0  0  0  0  0
    1.3610    2.2614   -1.8845 H   0  0  0  0  0  0
    3.2893    1.2758   -3.0487 H   0  0  0  0  0  0
   -3.7436    2.2823    0.2092 N   0  3  0  0  0  0
   -4.1378    2.9208    0.9100 H   0  0  0  0  0  0
   -3.1978    2.8194   -0.4747 H   0  0  0  0  0  0
  1  2  2  0  0  0
  1 27  1  0  0  0
  1 28  1  0  0  0
  2  3  1  0  0  0
  3  4  2  0  0  0
  3 29  1  0  0  0
  4  5  1  0  0  0
  4 27  1  0  0  0
  5  6  2  0  0  0
  5 26  1  0  0  0
  6  7  1  0  0  0
  6 30  1  0  0  0
  7  8  2  0  0  0
  7 31  1  0  0  0
  8  9  1  0  0  0
  8 25  1  0  0  0
  9 10  2  0  0  0
  9 24  1  0  0  0
 10 11  1  0  0  0
 11 12  1  0  0  0
 12 13  1  0  0  0
 12 24  2  0  0  0
 13 17  1  0  0  0
 13 32  1  0  0  0
 13 47  1  0  0  0
 14 15  1  0  0  0
 14 33  1  0  0  0
 14 34  1  0  0  0
 14 47  1  0  0  0
 15 16  1  0  0  0
 15 35  1  0  0  0
 15 36  1  0  0  0
 16 17  1  0  0  0
 16 37  1  0  0  0
 16 38  1  0  0  0
 17 18  1  0  0  0
 17 39  1  0  0  0
 18 19  2  0  0  0
 18 23  1  0  0  0
 19 20  1  0  0  0
 19 40  1  0  0  0
 20 21  2  0  0  0
 20 41  1  0  0  0
 21 22  1  0  0  0
 21 42  1  0  0  0
 22 23  2  0  0  0
 22 43  1  0  0  0
 23 44  1  0  0  0
 25 26  2  0  0  0
 25 45  1  0  0  0
 26 46  1  0  0  0
 47 48  1  0  0  0
 47 49  1  0  0  0
M  CHG  1  47   1
M  END
> <energy>
115.69

> <i_ionizer_Ion_state_n>
1

> <i_ionizer_Tot_Q>
1

> <s_ionizer_Ion_centers>
47

> <s_ionizer_Ion_types>
N5

> <s_ionizer_Ion_ctrs_in>
14

> <r_ionizer_Ionization_penalty>
0.000148807

> <r_ionizer_Ionization_penalty_charging>
0.000148807

> <r_ionizer_Ionization_penalty_neutral>
0

$$$$
ZINC001211869780
                    3D
 Schrodinger Suite 2019-4.
 49 53  0  0  1  0            999 V2000
    6.9807   -2.3987    2.5613 C   0  0  0  0  0  0
    7.7566   -2.2733    1.5082 N   0  0  0  0  0  0
    6.9673   -1.5742    0.6201 C   0  0  0  0  0  0
    5.7356   -1.3020    1.1870 C   0  0  0  0  0  0
    4.5253   -0.5960    0.7767 C   0  0  0  0  0  0
    4.5687    0.3408   -0.2650 C   0  0  0  0  0  0
    3.4120    1.0194   -0.6725 C   0  0  0  0  0  0
    2.1747    0.7728   -0.0599 C   0  0  0  0  0  0
    0.9548    1.4390   -0.5155 C   0  0  0  0  0  0
    0.9298    2.3848   -1.4678 N   0  0  0  0  0  0
   -0.4251    2.6604   -1.6307 O   0  0  0  0  0  0
   -1.0990    1.8519   -0.7581 C   0  0  0  0  0  0
   -2.6077    1.8926   -0.8595 C   0  0  1  0  0  0
   -3.7841    2.8955    1.0848 C   0  0  0  0  0  0
   -3.1050    1.8004    1.8957 C   0  0  0  0  0  0
   -3.1481    0.4500    1.1781 C   0  0  0  0  0  0
   -3.3003    0.5876   -0.3576 C   0  0  2  0  0  0
   -3.0209   -0.7238   -1.0973 C   0  0  0  0  0  0
   -2.1719   -0.8219   -2.2105 C   0  0  0  0  0  0
   -1.9627   -2.0434   -2.8554 C   0  0  0  0  0  0
   -2.6120   -3.1933   -2.4141 C   0  0  0  0  0  0
   -3.4769   -3.1174   -1.3285 C   0  0  0  0  0  0
   -3.6826   -1.8972   -0.6825 C   0  0  0  0  0  0
   -0.2954    1.0999   -0.0358 N   0  0  0  0  0  0
    2.1293   -0.1570    0.9870 C   0  0  0  0  0  0
    3.2899   -0.8278    1.4008 C   0  0  0  0  0  0
    5.7408   -1.8508    2.4455 O   0  0  0  0  0  0
    7.2066   -2.8783    3.5070 H   0  0  0  0  0  0
    7.3284   -1.3120   -0.3675 H   0  0  0  0  0  0
    5.5065    0.5652   -0.7692 H   0  0  0  0  0  0
    3.4882    1.7417   -1.4868 H   0  0  0  0  0  0
   -2.8345    1.9952   -1.9299 H   0  0  0  0  0  0
   -3.7646    3.8342    1.6478 H   0  0  0  0  0  0
   -4.8421    2.6426    0.9353 H   0  0  0  0  0  0
   -3.5835    1.7084    2.8769 H   0  0  0  0  0  0
   -2.0598    2.0789    2.0900 H   0  0  0  0  0  0
   -2.2522   -0.1222    1.4464 H   0  0  0  0  0  0
   -3.9983   -0.1222    1.5721 H   0  0  0  0  0  0
   -4.3732    0.7539   -0.5501 H   0  0  0  0  0  0
   -1.6411    0.0354   -2.6080 H   0  0  0  0  0  0
   -1.2854   -2.0958   -3.7056 H   0  0  0  0  0  0
   -2.4459   -4.1402   -2.9188 H   0  0  0  0  0  0
   -3.9952   -4.0076   -0.9839 H   0  0  0  0  0  0
   -4.3775   -1.8734    0.1547 H   0  0  0  0  0  0
    1.1861   -0.3738    1.4867 H   0  0  0  0  0  0
    3.2128   -1.5471    2.2154 H   0  0  0  0  0  0
   -3.1418    3.1502   -0.2288 N   0  3  0  0  0  0
   -2.3645    3.8074   -0.0938 H   0  0  0  0  0  0
   -3.8363    3.5667   -0.8601 H   0  0  0  0  0  0
  1  2  2  0  0  0
  1 27  1  0  0  0
  1 28  1  0  0  0
  2  3  1  0  0  0
  3  4  2  0  0  0
  3 29  1  0  0  0
  4  5  1  0  0  0
  4 27  1  0  0  0
  5  6  2  0  0  0
  5 26  1  0  0  0
  6  7  1  0  0  0
  6 30  1  0  0  0
  7  8  2  0  0  0
  7 31  1  0  0  0
  8  9  1  0  0  0
  8 25  1  0  0  0
  9 10  2  0  0  0
  9 24  1  0  0  0
 10 11  1  0  0  0
 11 12  1  0  0  0
 12 13  1  0  0  0
 12 24  2  0  0  0
 13 17  1  0  0  0
 13 32  1  0  0  0
 13 47  1  0  0  0
 14 15  1  0  0  0
 14 33  1  0  0  0
 14 34  1  0  0  0
 14 47  1  0  0  0
 15 16  1  0  0  0
 15 35  1  0  0  0
 15 36  1  0  0  0
 16 17  1  0  0  0
 16 37  1  0  0  0
 16 38  1  0  0  0
 17 18  1  0  0  0
 17 39  1  0  0  0
 18 19  2  0  0  0
 18 23  1  0  0  0
 19 20  1  0  0  0
 19 40  1  0  0  0
 20 21  2  0  0  0
 20 41  1  0  0  0
 21 22  1  0  0  0
 21 42  1  0  0  0
 22 23  2  0  0  0
 22 43  1  0  0  0
 23 44  1  0  0  0
 25 26  2  0  0  0
 25 45  1  0  0  0
 26 46  1  0  0  0
 47 48  1  0  0  0
 47 49  1  0  0  0
M  CHG  1  47   1
M  END
> <energy>
114.625

> <i_ionizer_Ion_state_n>
1

> <i_ionizer_Tot_Q>
1

> <s_ionizer_Ion_centers>
47

> <s_ionizer_Ion_types>
N5

> <s_ionizer_Ion_ctrs_in>
14

> <r_ionizer_Ionization_penalty>
0.000148807

> <r_ionizer_Ionization_penalty_charging>
0.000148807

> <r_ionizer_Ionization_penalty_neutral>
0

$$$$
ZINC001211869803
                    3D
 Schrodinger Suite 2019-4.
 43 46  0  0  1  0            999 V2000
   -2.1321    1.3587    2.2722 F   0  0  0  0  0  0
   -3.1448    1.6413    1.4409 C   0  0  0  0  0  0
   -3.9942    2.6901    1.8014 C   0  0  0  0  0  0
   -5.0532    3.0305    0.9679 C   0  0  0  0  0  0
   -6.0719    4.3534    1.3762 Cl  0  0  0  0  0  0
   -5.2877    2.3151   -0.2023 C   0  0  0  0  0  0
   -4.4312    1.2676   -0.5597 C   0  0  0  0  0  0
   -3.3290    0.9282    0.2487 C   0  0  0  0  0  0
   -2.3716   -0.0808   -0.1988 C   0  0  0  0  0  0
   -2.4039   -0.6204   -1.4308 N   0  0  0  0  0  0
   -1.2406   -1.3778   -1.4952 O   0  0  0  0  0  0
   -0.6254   -1.2528   -0.2819 C   0  0  0  0  0  0
    0.7318   -1.9001   -0.1379 C   0  0  2  0  0  0
    2.0049   -3.9035   -0.7709 C   0  0  0  0  0  0
    2.9810   -3.0676   -1.5932 C   0  0  0  0  0  0
    3.1639   -1.6955   -0.9593 C   0  0  0  0  0  0
    1.8091   -0.9837   -0.8007 C   0  0  2  0  0  0
    1.9921    0.3376   -0.0581 C   0  0  0  0  0  0
    1.6023    1.5394   -0.6701 C   0  0  0  0  0  0
    1.7458    2.7598   -0.0067 C   0  0  0  0  0  0
    2.2845    2.7970    1.2763 C   0  0  0  0  0  0
    2.6673    1.6135    1.9020 C   0  0  0  0  0  0
    2.5223    0.3910    1.2404 C   0  0  0  0  0  0
   -1.3025   -0.5058    0.5594 N   0  0  0  0  0  0
   -3.8052    3.2325    2.7210 H   0  0  0  0  0  0
   -6.1220    2.5756   -0.8476 H   0  0  0  0  0  0
   -4.6189    0.7324   -1.4906 H   0  0  0  0  0  0
    0.9475   -1.9981    0.9334 H   0  0  0  0  0  0
    1.8915   -4.8878   -1.2384 H   0  0  0  0  0  0
    2.4003   -4.0705    0.2387 H   0  0  0  0  0  0
    2.6121   -2.9553   -2.6237 H   0  0  0  0  0  0
    3.9468   -3.5798   -1.6545 H   0  0  0  0  0  0
    3.6653   -1.8170    0.0087 H   0  0  0  0  0  0
    3.8317   -1.0901   -1.5861 H   0  0  0  0  0  0
    1.4712   -0.7517   -1.8221 H   0  0  0  0  0  0
    1.1715    1.5325   -1.6694 H   0  0  0  0  0  0
    1.4325    3.6800   -0.4933 H   0  0  0  0  0  0
    2.4015    3.7472    1.7896 H   0  0  0  0  0  0
    3.0746    1.6418    2.9085 H   0  0  0  0  0  0
    2.8248   -0.5163    1.7591 H   0  0  0  0  0  0
    0.6727   -3.2818   -0.7146 N   0  3  0  0  0  0
    0.0595   -3.8612   -0.1294 H   0  0  0  0  0  0
    0.2892   -3.2298   -1.6656 H   0  0  0  0  0  0
  1  2  1  0  0  0
  2  3  2  0  0  0
  2  8  1  0  0  0
  3  4  1  0  0  0
  3 25  1  0  0  0
  4  5  1  0  0  0
  4  6  2  0  0  0
  6  7  1  0  0  0
  6 26  1  0  0  0
  7  8  2  0  0  0
  7 27  1  0  0  0
  8  9  1  0  0  0
  9 10  2  0  0  0
  9 24  1  0  0  0
 10 11  1  0  0  0
 11 12  1  0  0  0
 12 13  1  0  0  0
 12 24  2  0  0  0
 13 17  1  0  0  0
 13 28  1  0  0  0
 13 41  1  0  0  0
 14 15  1  0  0  0
 14 29  1  0  0  0
 14 30  1  0  0  0
 14 41  1  0  0  0
 15 16  1  0  0  0
 15 31  1  0  0  0
 15 32  1  0  0  0
 16 17  1  0  0  0
 16 33  1  0  0  0
 16 34  1  0  0  0
 17 18  1  0  0  0
 17 35  1  0  0  0
 18 19  2  0  0  0
 18 23  1  0  0  0
 19 20  1  0  0  0
 19 36  1  0  0  0
 20 21  2  0  0  0
 20 37  1  0  0  0
 21 22  1  0  0  0
 21 38  1  0  0  0
 22 23  2  0  0  0
 22 39  1  0  0  0
 23 40  1  0  0  0
 41 42  1  0  0  0
 41 43  1  0  0  0
M  CHG  1  41   1
M  END
> <energy>
80.2273

> <i_ionizer_Ion_state_n>
1

> <i_ionizer_Tot_Q>
1

> <s_ionizer_Ion_centers>
41

> <s_ionizer_Ion_types>
N5

> <s_ionizer_Ion_ctrs_in>
14

> <r_ionizer_Ionization_penalty>
0.000148807

> <r_ionizer_Ionization_penalty_charging>
0.000148807

> <r_ionizer_Ionization_penalty_neutral>
0

$$$$
ZINC001211869804
                    3D
 Schrodinger Suite 2019-4.
 43 46  0  0  1  0            999 V2000
   -0.0576   -4.7400    0.2645 F   0  0  0  0  0  0
    0.9605   -4.2969   -0.4908 C   0  0  0  0  0  0
    2.0325   -5.1709   -0.6803 C   0  0  0  0  0  0
    3.1194   -4.7667   -1.4452 C   0  0  0  0  0  0
    4.4705   -5.8130   -1.6403 Cl  0  0  0  0  0  0
    3.1261   -3.5096   -2.0462 C   0  0  0  0  0  0
    2.0528   -2.6344   -1.8434 C   0  0  0  0  0  0
    0.9596   -3.0061   -1.0365 C   0  0  0  0  0  0
   -0.0968   -2.0411   -0.7482 C   0  0  0  0  0  0
   -1.2452   -2.3441   -0.1274 N   0  0  0  0  0  0
   -1.9122   -1.1288   -0.0380 O   0  0  0  0  0  0
   -1.1118   -0.1905   -0.6269 C   0  0  0  0  0  0
   -1.6810    1.2047   -0.6826 C   0  0  1  0  0  0
   -1.3109    3.0328   -2.3007 C   0  0  0  0  0  0
    0.1234    3.2030   -1.8023 C   0  0  0  0  0  0
    0.2975    2.8225   -0.3300 C   0  0  0  0  0  0
   -0.9766    2.2080    0.2865 C   0  0  2  0  0  0
   -0.8111    1.6848    1.7108 C   0  0  0  0  0  0
    0.3138    0.9442    2.1082 C   0  0  0  0  0  0
    0.4107    0.4196    3.3976 C   0  0  0  0  0  0
   -0.6105    0.6396    4.3158 C   0  0  0  0  0  0
   -1.7291    1.3825    3.9453 C   0  0  0  0  0  0
   -1.8321    1.8964    2.6521 C   0  0  0  0  0  0
    0.0253   -0.6923   -1.0640 N   0  0  0  0  0  0
    2.0095   -6.1488   -0.2123 H   0  0  0  0  0  0
    3.9711   -3.1995   -2.6562 H   0  0  0  0  0  0
    2.0819   -1.6476   -2.3075 H   0  0  0  0  0  0
   -2.7228    1.1327   -0.3332 H   0  0  0  0  0  0
   -1.3451    3.2612   -3.3702 H   0  0  0  0  0  0
   -1.9794    3.7503   -1.8107 H   0  0  0  0  0  0
    0.7932    2.5722   -2.4035 H   0  0  0  0  0  0
    0.4605    4.2349   -1.9648 H   0  0  0  0  0  0
    1.1648    2.1562   -0.2522 H   0  0  0  0  0  0
    0.5651    3.7164    0.2423 H   0  0  0  0  0  0
   -1.6696    3.0618    0.3806 H   0  0  0  0  0  0
    1.1240    0.7453    1.4112 H   0  0  0  0  0  0
    1.2829   -0.1716    3.6750 H   0  0  0  0  0  0
   -0.5393    0.2224    5.3143 H   0  0  0  0  0  0
   -2.5263    1.5463    4.6674 H   0  0  0  0  0  0
   -2.7226    2.4713    2.3949 H   0  0  0  0  0  0
   -1.7736    1.6472   -2.1178 N   0  3  0  0  0  0
   -1.1938    1.0260   -2.6942 H   0  0  0  0  0  0
   -2.7520    1.5822   -2.4221 H   0  0  0  0  0  0
  1  2  1  0  0  0
  2  3  2  0  0  0
  2  8  1  0  0  0
  3  4  1  0  0  0
  3 25  1  0  0  0
  4  5  1  0  0  0
  4  6  2  0  0  0
  6  7  1  0  0  0
  6 26  1  0  0  0
  7  8  2  0  0  0
  7 27  1  0  0  0
  8  9  1  0  0  0
  9 10  2  0  0  0
  9 24  1  0  0  0
 10 11  1  0  0  0
 11 12  1  0  0  0
 12 13  1  0  0  0
 12 24  2  0  0  0
 13 17  1  0  0  0
 13 28  1  0  0  0
 13 41  1  0  0  0
 14 15  1  0  0  0
 14 29  1  0  0  0
 14 30  1  0  0  0
 14 41  1  0  0  0
 15 16  1  0  0  0
 15 31  1  0  0  0
 15 32  1  0  0  0
 16 17  1  0  0  0
 16 33  1  0  0  0
 16 34  1  0  0  0
 17 18  1  0  0  0
 17 35  1  0  0  0
 18 19  2  0  0  0
 18 23  1  0  0  0
 19 20  1  0  0  0
 19 36  1  0  0  0
 20 21  2  0  0  0
 20 37  1  0  0  0
 21 22  1  0  0  0
 21 38  1  0  0  0
 22 23  2  0  0  0
 22 39  1  0  0  0
 23 40  1  0  0  0
 41 42  1  0  0  0
 41 43  1  0  0  0
M  CHG  1  41   1
M  END
> <energy>
86.8222

> <i_ionizer_Ion_state_n>
1

> <i_ionizer_Tot_Q>
1

> <s_ionizer_Ion_centers>
41

> <s_ionizer_Ion_types>
N5

> <s_ionizer_Ion_ctrs_in>
14

> <r_ionizer_Ionization_penalty>
0.000148807

> <r_ionizer_Ionization_penalty_charging>
0.000148807

> <r_ionizer_Ionization_penalty_neutral>
0

$$$$
ZINC001211869805
                    3D
 Schrodinger Suite 2019-4.
 43 46  0  0  1  0            999 V2000
   -2.9077    1.7991   -0.8805 F   0  0  0  0  0  0
   -3.7368    1.0495   -0.1395 C   0  0  0  0  0  0
   -4.8888    1.6537    0.3633 C   0  0  0  0  0  0
   -5.7787    0.9014    1.1219 C   0  0  0  0  0  0
   -7.1960    1.6408    1.7561 Cl  0  0  0  0  0  0
   -5.5310   -0.4481    1.3720 C   0  0  0  0  0  0
   -4.3786   -1.0509    0.8534 C   0  0  0  0  0  0
   -3.4659   -0.3025    0.0933 C   0  0  0  0  0  0
   -2.2605   -0.9167   -0.4309 C   0  0  0  0  0  0
   -2.2284   -2.1433   -0.9730 N   0  0  0  0  0  0
   -0.8867   -2.3165   -1.3135 O   0  0  0  0  0  0
   -0.2283   -1.1890   -0.9026 C   0  0  0  0  0  0
    1.2748   -1.1371   -1.1009 C   0  0  1  0  0  0
    2.1829   -3.1487   -0.0748 C   0  0  0  0  0  0
    3.3493   -2.4514    0.6227 C   0  0  0  0  0  0
    3.3649   -0.9391    0.3834 C   0  0  0  0  0  0
    1.9483   -0.3973    0.1061 C   0  0  1  0  0  0
    1.9619    1.1161   -0.0649 C   0  0  0  0  0  0
    1.1143    1.9081    0.7240 C   0  0  0  0  0  0
    1.1005    3.2970    0.5903 C   0  0  0  0  0  0
    1.9345    3.9145   -0.3374 C   0  0  0  0  0  0
    2.7749    3.1418   -1.1354 C   0  0  0  0  0  0
    2.7875    1.7516   -1.0039 C   0  0  0  0  0  0
   -1.0338   -0.3031   -0.3581 N   0  0  0  0  0  0
   -5.0719    2.7034    0.1566 H   0  0  0  0  0  0
   -6.2252   -1.0355    1.9690 H   0  0  0  0  0  0
   -4.1886   -2.1026    1.0602 H   0  0  0  0  0  0
    1.4380   -0.5705   -2.0268 H   0  0  0  0  0  0
    2.4419   -4.1966   -0.2656 H   0  0  0  0  0  0
    1.3028   -3.1683    0.5805 H   0  0  0  0  0  0
    4.3021   -2.8750    0.2809 H   0  0  0  0  0  0
    3.2845   -2.6541    1.6989 H   0  0  0  0  0  0
    4.0256   -0.7310   -0.4663 H   0  0  0  0  0  0
    3.8123   -0.4377    1.2513 H   0  0  0  0  0  0
    1.3709   -0.6241    1.0150 H   0  0  0  0  0  0
    0.4426    1.4445    1.4441 H   0  0  0  0  0  0
    0.4300    3.8922    1.2044 H   0  0  0  0  0  0
    1.9224    4.9953   -0.4416 H   0  0  0  0  0  0
    3.4214    3.6246   -1.8627 H   0  0  0  0  0  0
    3.4468    1.1762   -1.6498 H   0  0  0  0  0  0
    1.8594   -2.4948   -1.3473 N   0  3  0  0  0  0
    1.1793   -3.0686   -1.8595 H   0  0  0  0  0  0
    2.7156   -2.3987   -1.9058 H   0  0  0  0  0  0
  1  2  1  0  0  0
  2  3  2  0  0  0
  2  8  1  0  0  0
  3  4  1  0  0  0
  3 25  1  0  0  0
  4  5  1  0  0  0
  4  6  2  0  0  0
  6  7  1  0  0  0
  6 26  1  0  0  0
  7  8  2  0  0  0
  7 27  1  0  0  0
  8  9  1  0  0  0
  9 10  2  0  0  0
  9 24  1  0  0  0
 10 11  1  0  0  0
 11 12  1  0  0  0
 12 13  1  0  0  0
 12 24  2  0  0  0
 13 17  1  0  0  0
 13 28  1  0  0  0
 13 41  1  0  0  0
 14 15  1  0  0  0
 14 29  1  0  0  0
 14 30  1  0  0  0
 14 41  1  0  0  0
 15 16  1  0  0  0
 15 31  1  0  0  0
 15 32  1  0  0  0
 16 17  1  0  0  0
 16 33  1  0  0  0
 16 34  1  0  0  0
 17 18  1  0  0  0
 17 35  1  0  0  0
 18 19  2  0  0  0
 18 23  1  0  0  0
 19 20  1  0  0  0
 19 36  1  0  0  0
 20 21  2  0  0  0
 20 37  1  0  0  0
 21 22  1  0  0  0
 21 38  1  0  0  0
 22 23  2  0  0  0
 22 39  1  0  0  0
 23 40  1  0  0  0
 41 42  1  0  0  0
 41 43  1  0  0  0
M  CHG  1  41   1
M  END
> <energy>
88.9105

> <i_ionizer_Ion_state_n>
1

> <i_ionizer_Tot_Q>
1

> <s_ionizer_Ion_centers>
41

> <s_ionizer_Ion_types>
N5

> <s_ionizer_Ion_ctrs_in>
14

> <r_ionizer_Ionization_penalty>
0.000148807

> <r_ionizer_Ionization_penalty_charging>
0.000148807

> <r_ionizer_Ionization_penalty_neutral>
0

$$$$
ZINC001211869806
                    3D
 Schrodinger Suite 2019-4.
 43 46  0  0  1  0            999 V2000
   -5.0116   -0.1327    1.0886 F   0  0  0  0  0  0
   -4.6851    0.6929    0.0829 C   0  0  0  0  0  0
   -5.7100    1.2145   -0.7023 C   0  0  0  0  0  0
   -5.3926    2.0516   -1.7678 C   0  0  0  0  0  0
   -6.6463    2.6866   -2.7592 Cl  0  0  0  0  0  0
   -4.0626    2.3721   -2.0469 C   0  0  0  0  0  0
   -3.0384    1.8360   -1.2612 C   0  0  0  0  0  0
   -3.3464    0.9897   -0.1857 C   0  0  0  0  0  0
   -2.2872    0.3938    0.5952 C   0  0  0  0  0  0
   -2.1071    0.6012    1.9094 N   0  0  0  0  0  0
   -0.9836   -0.1679    2.2098 O   0  0  0  0  0  0
   -0.5978   -0.7651    1.0428 C   0  0  0  0  0  0
    0.6046   -1.6692    1.1164 C   0  0  2  0  0  0
    1.8226   -3.4947    0.0425 C   0  0  0  0  0  0
    3.1347   -2.7215    0.1215 C   0  0  0  0  0  0
    3.1471   -1.7802    1.3252 C   0  0  0  0  0  0
    1.9115   -0.8526    1.3590 C   0  0  1  0  0  0
    2.1353    0.3768    0.4804 C   0  0  0  0  0  0
    2.6958    1.5295    1.0583 C   0  0  0  0  0  0
    2.9142    2.6803    0.2988 C   0  0  0  0  0  0
    2.5786    2.6981   -1.0512 C   0  0  0  0  0  0
    2.0256    1.5636   -1.6405 C   0  0  0  0  0  0
    1.8119    0.4093   -0.8819 C   0  0  0  0  0  0
   -1.3670   -0.4512    0.0228 N   0  0  0  0  0  0
   -6.7396    0.9492   -0.4811 H   0  0  0  0  0  0
   -3.8188    3.0300   -2.8784 H   0  0  0  0  0  0
   -2.0008    2.0741   -1.4910 H   0  0  0  0  0  0
    0.4549   -2.3126    1.9950 H   0  0  0  0  0  0
    1.7123   -4.1546    0.9116 H   0  0  0  0  0  0
    1.8357   -4.1384   -0.8451 H   0  0  0  0  0  0
    3.2827   -2.1501   -0.8029 H   0  0  0  0  0  0
    3.9740   -3.4230    0.1879 H   0  0  0  0  0  0
    4.0809   -1.2055    1.3406 H   0  0  0  0  0  0
    3.1450   -2.3931    2.2372 H   0  0  0  0  0  0
    1.8372   -0.4751    2.3898 H   0  0  0  0  0  0
    2.9593    1.5393    2.1132 H   0  0  0  0  0  0
    3.3416    3.5632    0.7672 H   0  0  0  0  0  0
    2.7492    3.5928   -1.6432 H   0  0  0  0  0  0
    1.7607    1.5726   -2.6937 H   0  0  0  0  0  0
    1.3712   -0.4545   -1.3763 H   0  0  0  0  0  0
    0.6785   -2.5790   -0.0665 N   0  3  0  0  0  0
   -0.1870   -3.1287   -0.1218 H   0  0  0  0  0  0
    0.7806   -2.0146   -0.9182 H   0  0  0  0  0  0
  1  2  1  0  0  0
  2  3  2  0  0  0
  2  8  1  0  0  0
  3  4  1  0  0  0
  3 25  1  0  0  0
  4  5  1  0  0  0
  4  6  2  0  0  0
  6  7  1  0  0  0
  6 26  1  0  0  0
  7  8  2  0  0  0
  7 27  1  0  0  0
  8  9  1  0  0  0
  9 10  2  0  0  0
  9 24  1  0  0  0
 10 11  1  0  0  0
 11 12  1  0  0  0
 12 13  1  0  0  0
 12 24  2  0  0  0
 13 17  1  0  0  0
 13 28  1  0  0  0
 13 41  1  0  0  0
 14 15  1  0  0  0
 14 29  1  0  0  0
 14 30  1  0  0  0
 14 41  1  0  0  0
 15 16  1  0  0  0
 15 31  1  0  0  0
 15 32  1  0  0  0
 16 17  1  0  0  0
 16 33  1  0  0  0
 16 34  1  0  0  0
 17 18  1  0  0  0
 17 35  1  0  0  0
 18 19  2  0  0  0
 18 23  1  0  0  0
 19 20  1  0  0  0
 19 36  1  0  0  0
 20 21  2  0  0  0
 20 37  1  0  0  0
 21 22  1  0  0  0
 21 38  1  0  0  0
 22 23  2  0  0  0
 22 39  1  0  0  0
 23 40  1  0  0  0
 41 42  1  0  0  0
 41 43  1  0  0  0
M  CHG  1  41   1
M  END
> <energy>
82.6342

> <i_ionizer_Ion_state_n>
1

> <i_ionizer_Tot_Q>
1

> <s_ionizer_Ion_centers>
41

> <s_ionizer_Ion_types>
N5

> <s_ionizer_Ion_ctrs_in>
14

> <r_ionizer_Ionization_penalty>
0.000148807

> <r_ionizer_Ionization_penalty_charging>
0.000148807

> <r_ionizer_Ionization_penalty_neutral>
0

$$$$
ZINC001211869811
                    3D
 Schrodinger Suite 2019-4.
 47 50  0  0  1  0            999 V2000
   -4.1122    0.2764   -0.7101 C   0  0  0  0  0  0
   -3.9081    0.2140   -2.1223 O   0  0  0  0  0  0
   -3.2108    1.3144   -2.5509 C   0  0  0  0  0  0
   -3.9752    2.3908   -3.0128 C   0  0  0  0  0  0
   -3.3531    3.5562   -3.4439 C   0  0  0  0  0  0
   -1.9659    3.6337   -3.4308 C   0  0  0  0  0  0
   -1.2091    5.0867   -3.9450 Cl  0  0  0  0  0  0
   -1.1874    2.5563   -2.9866 C   0  0  0  0  0  0
   -1.8040    1.3643   -2.5507 C   0  0  0  0  0  0
   -0.9866    0.2624   -2.0460 C   0  0  0  0  0  0
   -1.4174   -0.9978   -1.8696 N   0  0  0  0  0  0
   -0.3748   -1.6267   -1.2004 O   0  0  0  0  0  0
    0.6158   -0.6991   -1.0700 C   0  0  0  0  0  0
    1.8952   -1.1118   -0.3994 C   0  0  1  0  0  0
    3.4321   -2.8912    0.1403 C   0  0  0  0  0  0
    4.0169   -2.0916    1.3056 C   0  0  0  0  0  0
    3.6201   -0.6111    1.3543 C   0  0  0  0  0  0
    2.1728   -0.3022    0.8920 C   0  0  2  0  0  0
    1.1141   -0.3803    1.9957 C   0  0  0  0  0  0
    1.2463   -1.1872    3.1276 C   0  0  0  0  0  0
    0.3258   -1.1184    4.1782 C   0  0  0  0  0  0
   -0.7761   -0.2735    4.0954 C   0  0  0  0  0  0
   -0.9538    0.5142    2.9632 C   0  0  0  0  0  0
   -0.0204    0.4544    1.9243 C   0  0  0  0  0  0
    0.3015    0.4718   -1.6010 N   0  0  0  0  0  0
   -4.3776   -0.7246   -0.3612 H   0  0  0  0  0  0
   -4.9389    0.9554   -0.4838 H   0  0  0  0  0  0
   -3.2222    0.5942   -0.1535 H   0  0  0  0  0  0
   -5.0585    2.3159   -3.0092 H   0  0  0  0  0  0
   -3.9576    4.4004   -3.7687 H   0  0  0  0  0  0
   -0.1019    2.6442   -2.9759 H   0  0  0  0  0  0
    2.6662   -0.8244   -1.1361 H   0  0  0  0  0  0
    4.0414   -2.7585   -0.7664 H   0  0  0  0  0  0
    3.4990   -3.9578    0.3797 H   0  0  0  0  0  0
    3.7194   -2.5818    2.2376 H   0  0  0  0  0  0
    5.1141   -2.1603    1.2891 H   0  0  0  0  0  0
    3.7972   -0.2081    2.3551 H   0  0  0  0  0  0
    4.2992   -0.0578    0.6848 H   0  0  0  0  0  0
    2.1988    0.7619    0.6133 H   0  0  0  0  0  0
    2.0726   -1.8765    3.2321 H   0  0  0  0  0  0
    0.4798   -1.7299    5.0673 H   0  0  0  0  0  0
   -1.4834   -0.2242    4.9196 H   0  0  0  0  0  0
   -1.8129    1.1776    2.8900 H   0  0  0  0  0  0
   -0.1867    1.0932    1.0584 H   0  0  0  0  0  0
    2.0333   -2.5664   -0.1429 N   0  3  0  0  0  0
    1.4533   -2.8266    0.6635 H   0  0  0  0  0  0
    1.7231   -3.0891   -0.9704 H   0  0  0  0  0  0
  1  2  1  0  0  0
  1 26  1  0  0  0
  1 27  1  0  0  0
  1 28  1  0  0  0
  2  3  1  0  0  0
  3  4  2  0  0  0
  3  9  1  0  0  0
  4  5  1  0  0  0
  4 29  1  0  0  0
  5  6  2  0  0  0
  5 30  1  0  0  0
  6  7  1  0  0  0
  6  8  1  0  0  0
  8  9  2  0  0  0
  8 31  1  0  0  0
  9 10  1  0  0  0
 10 11  2  0  0  0
 10 25  1  0  0  0
 11 12  1  0  0  0
 12 13  1  0  0  0
 13 14  1  0  0  0
 13 25  2  0  0  0
 14 18  1  0  0  0
 14 32  1  0  0  0
 14 45  1  0  0  0
 15 16  1  0  0  0
 15 33  1  0  0  0
 15 34  1  0  0  0
 15 45  1  0  0  0
 16 17  1  0  0  0
 16 35  1  0  0  0
 16 36  1  0  0  0
 17 18  1  0  0  0
 17 37  1  0  0  0
 17 38  1  0  0  0
 18 19  1  0  0  0
 18 39  1  0  0  0
 19 20  2  0  0  0
 19 24  1  0  0  0
 20 21  1  0  0  0
 20 40  1  0  0  0
 21 22  2  0  0  0
 21 41  1  0  0  0
 22 23  1  0  0  0
 22 42  1  0  0  0
 23 24  2  0  0  0
 23 43  1  0  0  0
 24 44  1  0  0  0
 45 46  1  0  0  0
 45 47  1  0  0  0
M  CHG  1  45   1
M  END
> <energy>
105.368

> <i_ionizer_Ion_state_n>
1

> <i_ionizer_Tot_Q>
1

> <s_ionizer_Ion_centers>
45

> <s_ionizer_Ion_types>
N5

> <s_ionizer_Ion_ctrs_in>
15

> <r_ionizer_Ionization_penalty>
0.000148807

> <r_ionizer_Ionization_penalty_charging>
0.000148807

> <r_ionizer_Ionization_penalty_neutral>
0

$$$$
ZINC001211869812
                    3D
 Schrodinger Suite 2019-4.
 47 50  0  0  1  0            999 V2000
   -4.4687    0.1144    1.3025 C   0  0  0  0  0  0
   -4.6047    1.0626    0.2426 O   0  0  0  0  0  0
   -4.0872    2.2756    0.6170 C   0  0  0  0  0  0
   -4.9675    3.2028    1.1819 C   0  0  0  0  0  0
   -4.5006    4.4581    1.5685 C   0  0  0  0  0  0
   -3.1552    4.7766    1.3824 C   0  0  0  0  0  0
   -2.5766    6.3259    1.8581 Cl  0  0  0  0  0  0
   -2.2727    3.8583    0.8132 C   0  0  0  0  0  0
   -2.7381    2.5992    0.4107 C   0  0  0  0  0  0
   -1.8062    1.6423   -0.1510 C   0  0  0  0  0  0
   -1.9451    1.0602   -1.3510 N   0  0  0  0  0  0
   -0.9055    0.1363   -1.3885 O   0  0  0  0  0  0
   -0.2187    0.2728   -0.2166 C   0  0  0  0  0  0
    0.8841   -0.7205    0.0630 C   0  0  1  0  0  0
    2.6229    0.7312    1.0078 C   0  0  0  0  0  0
    3.6190    0.3426   -0.0763 C   0  0  0  0  0  0
    2.9149   -0.0304   -1.3768 C   0  0  0  0  0  0
    1.7570   -1.0295   -1.1910 C   0  0  1  0  0  0
    2.2129   -2.4873   -1.2337 C   0  0  0  0  0  0
    2.9128   -3.0916   -0.1796 C   0  0  0  0  0  0
    3.2536   -4.4455   -0.2336 C   0  0  0  0  0  0
    2.9038   -5.2139   -1.3401 C   0  0  0  0  0  0
    2.2193   -4.6278   -2.4021 C   0  0  0  0  0  0
    1.8803   -3.2748   -2.3494 C   0  0  0  0  0  0
   -0.7194    1.2013    0.5703 N   0  0  0  0  0  0
   -3.4193   -0.0364    1.5782 H   0  0  0  0  0  0
   -4.8646   -0.8424    0.9488 H   0  0  0  0  0  0
   -5.0490    0.4215    2.1796 H   0  0  0  0  0  0
   -6.0108    2.9356    1.3264 H   0  0  0  0  0  0
   -5.1837    5.1756    2.0156 H   0  0  0  0  0  0
   -1.2267    4.1232    0.6742 H   0  0  0  0  0  0
    0.3495   -1.6405    0.3404 H   0  0  0  0  0  0
    3.1687    0.9451    1.9332 H   0  0  0  0  0  0
    2.1022    1.6561    0.7334 H   0  0  0  0  0  0
    4.3000    1.1804   -0.2626 H   0  0  0  0  0  0
    4.2409   -0.4896    0.2687 H   0  0  0  0  0  0
    2.5049    0.8935   -1.8054 H   0  0  0  0  0  0
    3.6457   -0.4055   -2.1028 H   0  0  0  0  0  0
    1.1285   -0.8991   -2.0845 H   0  0  0  0  0  0
    3.1852   -2.5254    0.7077 H   0  0  0  0  0  0
    3.7854   -4.9037    0.5977 H   0  0  0  0  0  0
    3.1614   -6.2687   -1.3736 H   0  0  0  0  0  0
    1.9447   -5.2288   -3.2653 H   0  0  0  0  0  0
    1.3374   -2.8471   -3.1901 H   0  0  0  0  0  0
    1.6705   -0.3570    1.2880 N   0  3  0  0  0  0
    1.0223   -0.0530    2.0239 H   0  0  0  0  0  0
    2.1903   -1.1821    1.6092 H   0  0  0  0  0  0
  1  2  1  0  0  0
  1 26  1  0  0  0
  1 27  1  0  0  0
  1 28  1  0  0  0
  2  3  1  0  0  0
  3  4  2  0  0  0
  3  9  1  0  0  0
  4  5  1  0  0  0
  4 29  1  0  0  0
  5  6  2  0  0  0
  5 30  1  0  0  0
  6  7  1  0  0  0
  6  8  1  0  0  0
  8  9  2  0  0  0
  8 31  1  0  0  0
  9 10  1  0  0  0
 10 11  2  0  0  0
 10 25  1  0  0  0
 11 12  1  0  0  0
 12 13  1  0  0  0
 13 14  1  0  0  0
 13 25  2  0  0  0
 14 18  1  0  0  0
 14 32  1  0  0  0
 14 45  1  0  0  0
 15 16  1  0  0  0
 15 33  1  0  0  0
 15 34  1  0  0  0
 15 45  1  0  0  0
 16 17  1  0  0  0
 16 35  1  0  0  0
 16 36  1  0  0  0
 17 18  1  0  0  0
 17 37  1  0  0  0
 17 38  1  0  0  0
 18 19  1  0  0  0
 18 39  1  0  0  0
 19 20  2  0  0  0
 19 24  1  0  0  0
 20 21  1  0  0  0
 20 40  1  0  0  0
 21 22  2  0  0  0
 21 41  1  0  0  0
 22 23  1  0  0  0
 22 42  1  0  0  0
 23 24  2  0  0  0
 23 43  1  0  0  0
 24 44  1  0  0  0
 45 46  1  0  0  0
 45 47  1  0  0  0
M  CHG  1  45   1
M  END
> <energy>
99.0544

> <i_ionizer_Ion_state_n>
1

> <i_ionizer_Tot_Q>
1

> <s_ionizer_Ion_centers>
45

> <s_ionizer_Ion_types>
N5

> <s_ionizer_Ion_ctrs_in>
15

> <r_ionizer_Ionization_penalty>
0.000148807

> <r_ionizer_Ionization_penalty_charging>
0.000148807

> <r_ionizer_Ionization_penalty_neutral>
0

$$$$
ZINC001211869813
                    3D
 Schrodinger Suite 2019-4.
 47 50  0  0  1  0            999 V2000
   -3.9114    1.0429    1.8726 C   0  0  0  0  0  0
   -4.5139    0.0633    1.0260 O   0  0  0  0  0  0
   -4.2025    0.2768   -0.2929 C   0  0  0  0  0  0
   -5.1729    0.9239   -1.0742 C   0  0  0  0  0  0
   -4.9617    1.1248   -2.4392 C   0  0  0  0  0  0
   -3.7791    0.6735   -3.0186 C   0  0  0  0  0  0
   -3.5284    0.8877   -4.7083 Cl  0  0  0  0  0  0
   -2.8018    0.0395   -2.2457 C   0  0  0  0  0  0
   -3.0128   -0.1927   -0.8745 C   0  0  0  0  0  0
   -1.9746   -0.8790   -0.1137 C   0  0  0  0  0  0
   -2.2001   -1.7162    0.9116 N   0  0  0  0  0  0
   -0.9266   -2.0051    1.3934 O   0  0  0  0  0  0
   -0.0420   -1.3295    0.5969 C   0  0  0  0  0  0
    1.4116   -1.4101    1.0091 C   0  0  2  0  0  0
    2.5375   -3.3829    0.0754 C   0  0  0  0  0  0
    3.8464   -2.6462   -0.2110 C   0  0  0  0  0  0
    3.7811   -1.1481    0.1058 C   0  0  0  0  0  0
    2.3404   -0.6151    0.0357 C   0  0  2  0  0  0
    2.2977    0.8917    0.2696 C   0  0  0  0  0  0
    1.7334    1.7253   -0.7068 C   0  0  0  0  0  0
    1.6542    3.1066   -0.5106 C   0  0  0  0  0  0
    2.1415    3.6763    0.6649 C   0  0  0  0  0  0
    2.7157    2.8663    1.6387 C   0  0  0  0  0  0
    2.7956    1.4820    1.4451 C   0  0  0  0  0  0
   -0.6331   -0.6684   -0.3749 N   0  0  0  0  0  0
   -4.0441    0.7170    2.9075 H   0  0  0  0  0  0
   -2.8362    1.1558    1.7002 H   0  0  0  0  0  0
   -4.4109    2.0090    1.7568 H   0  0  0  0  0  0
   -6.1000    1.2595   -0.6179 H   0  0  0  0  0  0
   -5.7220    1.6185   -3.0409 H   0  0  0  0  0  0
   -1.8792   -0.2953   -2.7163 H   0  0  0  0  0  0
    1.4609   -0.9427    1.9998 H   0  0  0  0  0  0
    1.8818   -3.3736   -0.8073 H   0  0  0  0  0  0
    2.7705   -4.4355    0.2809 H   0  0  0  0  0  0
    4.1155   -2.7933   -1.2656 H   0  0  0  0  0  0
    4.6603   -3.0870    0.3748 H   0  0  0  0  0  0
    4.4368   -0.5991   -0.5830 H   0  0  0  0  0  0
    4.1880   -0.9905    1.1148 H   0  0  0  0  0  0
    1.9975   -0.7984   -0.9919 H   0  0  0  0  0  0
    1.3396    1.3006   -1.6276 H   0  0  0  0  0  0
    1.2076    3.7363   -1.2744 H   0  0  0  0  0  0
    2.0723    4.7494    0.8160 H   0  0  0  0  0  0
    3.1027    3.3115    2.5537 H   0  0  0  0  0  0
    3.2474    0.8747    2.2251 H   0  0  0  0  0  0
    1.8550   -2.8260    1.2512 N   0  3  0  0  0  0
    2.4996   -2.8423    2.0502 H   0  0  0  0  0  0
    1.0321   -3.4022    1.4636 H   0  0  0  0  0  0
  1  2  1  0  0  0
  1 26  1  0  0  0
  1 27  1  0  0  0
  1 28  1  0  0  0
  2  3  1  0  0  0
  3  4  2  0  0  0
  3  9  1  0  0  0
  4  5  1  0  0  0
  4 29  1  0  0  0
  5  6  2  0  0  0
  5 30  1  0  0  0
  6  7  1  0  0  0
  6  8  1  0  0  0
  8  9  2  0  0  0
  8 31  1  0  0  0
  9 10  1  0  0  0
 10 11  2  0  0  0
 10 25  1  0  0  0
 11 12  1  0  0  0
 12 13  1  0  0  0
 13 14  1  0  0  0
 13 25  2  0  0  0
 14 18  1  0  0  0
 14 32  1  0  0  0
 14 45  1  0  0  0
 15 16  1  0  0  0
 15 33  1  0  0  0
 15 34  1  0  0  0
 15 45  1  0  0  0
 16 17  1  0  0  0
 16 35  1  0  0  0
 16 36  1  0  0  0
 17 18  1  0  0  0
 17 37  1  0  0  0
 17 38  1  0  0  0
 18 19  1  0  0  0
 18 39  1  0  0  0
 19 20  2  0  0  0
 19 24  1  0  0  0
 20 21  1  0  0  0
 20 40  1  0  0  0
 21 22  2  0  0  0
 21 41  1  0  0  0
 22 23  1  0  0  0
 22 42  1  0  0  0
 23 24  2  0  0  0
 23 43  1  0  0  0
 24 44  1  0  0  0
 45 46  1  0  0  0
 45 47  1  0  0  0
M  CHG  1  45   1
M  END
> <energy>
102.056

> <i_ionizer_Ion_state_n>
1

> <i_ionizer_Tot_Q>
1

> <s_ionizer_Ion_centers>
45

> <s_ionizer_Ion_types>
N5

> <s_ionizer_Ion_ctrs_in>
15

> <r_ionizer_Ionization_penalty>
0.000148807

> <r_ionizer_Ionization_penalty_charging>
0.000148807

> <r_ionizer_Ionization_penalty_neutral>
0

$$$$
ZINC001211869814
                    3D
 Schrodinger Suite 2019-4.
 47 50  0  0  1  0            999 V2000
   -3.6430    0.5683   -1.9587 C   0  0  0  0  0  0
   -4.1092   -0.1810   -0.8348 O   0  0  0  0  0  0
   -3.9034    0.5184    0.3259 C   0  0  0  0  0  0
   -4.9311    1.3816    0.7251 C   0  0  0  0  0  0
   -4.8040    2.1222    1.8966 C   0  0  0  0  0  0
   -3.6576    1.9854    2.6740 C   0  0  0  0  0  0
   -3.4992    2.9063    4.1199 Cl  0  0  0  0  0  0
   -2.6399    1.1063    2.2943 C   0  0  0  0  0  0
   -2.7495    0.3466    1.1150 C   0  0  0  0  0  0
   -1.6527   -0.5533    0.7505 C   0  0  0  0  0  0
   -1.7072   -1.4851   -0.2147 N   0  0  0  0  0  0
   -0.4204   -2.0073   -0.2584 O   0  0  0  0  0  0
    0.3003   -1.3467    0.6916 C   0  0  0  0  0  0
    1.7745   -1.6411    0.7685 C   0  0  2  0  0  0
    2.9431   -3.5893   -0.2214 C   0  0  0  0  0  0
    2.5425   -3.1028   -1.6121 C   0  0  0  0  0  0
    2.4213   -1.5805   -1.7107 C   0  0  0  0  0  0
    2.5755   -0.8906   -0.3415 C   0  0  1  0  0  0
    2.3399    0.6160   -0.3521 C   0  0  0  0  0  0
    3.1025    1.4370    0.4957 C   0  0  0  0  0  0
    2.8865    2.8160    0.5437 C   0  0  0  0  0  0
    1.9017    3.3966   -0.2500 C   0  0  0  0  0  0
    1.1339    2.5978   -1.0927 C   0  0  0  0  0  0
    1.3497    1.2195   -1.1422 C   0  0  0  0  0  0
   -0.4175   -0.4740    1.3664 N   0  0  0  0  0  0
   -3.6021   -0.1076   -2.8189 H   0  0  0  0  0  0
   -2.6371    0.9726   -1.7972 H   0  0  0  0  0  0
   -4.3431    1.3778   -2.1934 H   0  0  0  0  0  0
   -5.8301    1.4717    0.1190 H   0  0  0  0  0  0
   -5.6002    2.7977    2.1981 H   0  0  0  0  0  0
   -1.7548    1.0153    2.9219 H   0  0  0  0  0  0
    2.1166   -1.2457    1.7352 H   0  0  0  0  0  0
    3.9702   -3.2878    0.0137 H   0  0  0  0  0  0
    2.9340   -4.6842   -0.2125 H   0  0  0  0  0  0
    1.5792   -3.5541   -1.8875 H   0  0  0  0  0  0
    3.2653   -3.4643   -2.3523 H   0  0  0  0  0  0
    1.4553   -1.3552   -2.1747 H   0  0  0  0  0  0
    3.1789   -1.1907   -2.4026 H   0  0  0  0  0  0
    3.6409   -1.0084   -0.0882 H   0  0  0  0  0  0
    3.8715    1.0071    1.1351 H   0  0  0  0  0  0
    3.4814    3.4365    1.2096 H   0  0  0  0  0  0
    1.7327    4.4700   -0.2116 H   0  0  0  0  0  0
    0.3570    3.0470   -1.7048 H   0  0  0  0  0  0
    0.7084    0.6294   -1.7910 H   0  0  0  0  0  0
    2.0044   -3.1270    0.8221 N   0  3  0  0  0  0
    2.3899   -3.3684    1.7426 H   0  0  0  0  0  0
    1.1051   -3.6051    0.6916 H   0  0  0  0  0  0
  1  2  1  0  0  0
  1 26  1  0  0  0
  1 27  1  0  0  0
  1 28  1  0  0  0
  2  3  1  0  0  0
  3  4  2  0  0  0
  3  9  1  0  0  0
  4  5  1  0  0  0
  4 29  1  0  0  0
  5  6  2  0  0  0
  5 30  1  0  0  0
  6  7  1  0  0  0
  6  8  1  0  0  0
  8  9  2  0  0  0
  8 31  1  0  0  0
  9 10  1  0  0  0
 10 11  2  0  0  0
 10 25  1  0  0  0
 11 12  1  0  0  0
 12 13  1  0  0  0
 13 14  1  0  0  0
 13 25  2  0  0  0
 14 18  1  0  0  0
 14 32  1  0  0  0
 14 45  1  0  0  0
 15 16  1  0  0  0
 15 33  1  0  0  0
 15 34  1  0  0  0
 15 45  1  0  0  0
 16 17  1  0  0  0
 16 35  1  0  0  0
 16 36  1  0  0  0
 17 18  1  0  0  0
 17 37  1  0  0  0
 17 38  1  0  0  0
 18 19  1  0  0  0
 18 39  1  0  0  0
 19 20  2  0  0  0
 19 24  1  0  0  0
 20 21  1  0  0  0
 20 40  1  0  0  0
 21 22  2  0  0  0
 21 41  1  0  0  0
 22 23  1  0  0  0
 22 42  1  0  0  0
 23 24  2  0  0  0
 23 43  1  0  0  0
 24 44  1  0  0  0
 45 46  1  0  0  0
 45 47  1  0  0  0
M  CHG  1  45   1
M  END
> <energy>
103.578

> <i_ionizer_Ion_state_n>
1

> <i_ionizer_Tot_Q>
1

> <s_ionizer_Ion_centers>
45

> <s_ionizer_Ion_types>
N5

> <s_ionizer_Ion_ctrs_in>
15

> <r_ionizer_Ionization_penalty>
0.000148807

> <r_ionizer_Ionization_penalty_charging>
0.000148807

> <r_ionizer_Ionization_penalty_neutral>
0

$$$$
ZINC001211869817
                    3D
 Schrodinger Suite 2019-4.
 45 49  0  0  1  0            999 V2000
    4.4866    4.5974    1.0666 C   0  0  0  0  0  0
    4.9153    3.4650    1.5770 N   0  0  0  0  0  0
    4.2361    2.4090    0.9922 C   0  0  0  0  0  0
    4.4114    1.0447    1.2949 C   0  0  0  0  0  0
    3.6054    0.0806    0.6708 C   0  0  0  0  0  0
    2.6212    0.4591   -0.2526 C   0  0  0  0  0  0
    1.6806   -0.5244   -0.7792 C   0  0  0  0  0  0
    1.8800   -1.8526   -0.7560 N   0  0  0  0  0  0
    0.6481   -2.3769   -1.1467 O   0  0  0  0  0  0
   -0.1736   -1.3087   -1.3892 C   0  0  0  0  0  0
   -1.6153   -1.6276   -1.6942 C   0  0  1  0  0  0
   -2.2673    0.3576   -3.0145 C   0  0  0  0  0  0
   -2.6012    1.0102   -1.6706 C   0  0  0  0  0  0
   -3.3576    0.0657   -0.7522 C   0  0  0  0  0  0
   -2.6231   -1.2809   -0.5515 C   0  0  2  0  0  0
   -2.0366   -1.4593    0.8481 C   0  0  0  0  0  0
   -2.1730   -2.6923    1.5041 C   0  0  0  0  0  0
   -1.6145   -2.8976    2.7679 C   0  0  0  0  0  0
   -0.8909   -1.8813    3.3874 C   0  0  0  0  0  0
   -0.7327   -0.6555    2.7456 C   0  0  0  0  0  0
   -1.3105   -0.4423    1.4898 C   0  0  0  0  0  0
    0.4384   -0.1536   -1.2491 N   0  0  0  0  0  0
    2.4685    1.8130   -0.5980 C   0  0  0  0  0  0
    3.2778    2.7693    0.0409 C   0  0  0  0  0  0
    3.2907    4.4813   -0.1498 S   0  0  0  0  0  0
    4.8652    5.5564    1.3909 H   0  0  0  0  0  0
    5.1434    0.7542    2.0448 H   0  0  0  0  0  0
    3.7362   -0.9652    0.9459 H   0  0  0  0  0  0
   -1.6540   -2.7218   -1.8004 H   0  0  0  0  0  0
   -3.0808    0.5655   -3.7215 H   0  0  0  0  0  0
   -1.3742    0.8443   -3.4246 H   0  0  0  0  0  0
   -1.6787    1.3332   -1.1799 H   0  0  0  0  0  0
   -3.1924    1.9178   -1.8420 H   0  0  0  0  0  0
   -4.3329   -0.1355   -1.2168 H   0  0  0  0  0  0
   -3.5861    0.5642    0.1948 H   0  0  0  0  0  0
   -3.4360   -2.0228   -0.6310 H   0  0  0  0  0  0
   -2.7077   -3.5129    1.0333 H   0  0  0  0  0  0
   -1.7348   -3.8568    3.2696 H   0  0  0  0  0  0
   -0.4417   -2.0447    4.3638 H   0  0  0  0  0  0
   -0.1518    0.1352    3.2164 H   0  0  0  0  0  0
   -1.1479    0.5188    1.0056 H   0  0  0  0  0  0
    1.7124    2.1236   -1.3152 H   0  0  0  0  0  0
   -2.0848   -1.1145   -3.0186 N   0  3  0  0  0  0
   -1.3902   -1.3598   -3.7339 H   0  0  0  0  0  0
   -2.9822   -1.5585   -3.2464 H   0  0  0  0  0  0
  1  2  2  0  0  0
  1 25  1  0  0  0
  1 26  1  0  0  0
  2  3  1  0  0  0
  3  4  2  0  0  0
  3 24  1  0  0  0
  4  5  1  0  0  0
  4 27  1  0  0  0
  5  6  2  0  0  0
  5 28  1  0  0  0
  6  7  1  0  0  0
  6 23  1  0  0  0
  7  8  2  0  0  0
  7 22  1  0  0  0
  8  9  1  0  0  0
  9 10  1  0  0  0
 10 11  1  0  0  0
 10 22  2  0  0  0
 11 15  1  0  0  0
 11 29  1  0  0  0
 11 43  1  0  0  0
 12 13  1  0  0  0
 12 30  1  0  0  0
 12 31  1  0  0  0
 12 43  1  0  0  0
 13 14  1  0  0  0
 13 32  1  0  0  0
 13 33  1  0  0  0
 14 15  1  0  0  0
 14 34  1  0  0  0
 14 35  1  0  0  0
 15 16  1  0  0  0
 15 36  1  0  0  0
 16 17  2  0  0  0
 16 21  1  0  0  0
 17 18  1  0  0  0
 17 37  1  0  0  0
 18 19  2  0  0  0
 18 38  1  0  0  0
 19 20  1  0  0  0
 19 39  1  0  0  0
 20 21  2  0  0  0
 20 40  1  0  0  0
 21 41  1  0  0  0
 23 24  2  0  0  0
 23 42  1  0  0  0
 24 25  1  0  0  0
 43 44  1  0  0  0
 43 45  1  0  0  0
M  CHG  1  43   1
M  END
> <energy>
96.3837

> <i_ionizer_Ion_state_n>
1

> <i_ionizer_Tot_Q>
1

> <s_ionizer_Ion_centers>
43

> <s_ionizer_Ion_types>
N5

> <s_ionizer_Ion_ctrs_in>
12

> <r_ionizer_Ionization_penalty>
0.000148807

> <r_ionizer_Ionization_penalty_charging>
0.000148807

> <r_ionizer_Ionization_penalty_neutral>
0

$$$$
ZINC001211869818
                    3D
 Schrodinger Suite 2019-4.
 45 49  0  0  1  0            999 V2000
    6.6123   -2.2295   -0.3480 C   0  0  0  0  0  0
    6.6236   -1.1234   -1.0558 N   0  0  0  0  0  0
    5.5635   -0.3195   -0.6655 C   0  0  0  0  0  0
    5.2021    0.9192   -1.2331 C   0  0  0  0  0  0
    4.0489    1.5807   -0.7883 C   0  0  0  0  0  0
    3.2574    1.0416    0.2305 C   0  0  0  0  0  0
    1.9534    1.6176    0.5506 C   0  0  0  0  0  0
    1.5432    2.8453    0.1967 N   0  0  0  0  0  0
    0.1602    2.8034    0.4114 O   0  0  0  0  0  0
   -0.1165    1.5499    0.8714 C   0  0  0  0  0  0
   -1.5620    1.1212    0.9369 C   0  0  1  0  0  0
   -2.6368   -0.0462    2.8482 C   0  0  0  0  0  0
   -1.8204   -1.2619    2.4682 C   0  0  0  0  0  0
   -1.9479   -1.4995    0.9739 C   0  0  0  0  0  0
   -1.6780   -0.2337    0.1362 C   0  0  1  0  0  0
   -2.6388   -0.1574   -1.0414 C   0  0  0  0  0  0
   -3.9761    0.2200   -0.8631 C   0  0  0  0  0  0
   -4.8407    0.2881   -1.9531 C   0  0  0  0  0  0
   -4.3828   -0.0288   -3.2328 C   0  0  0  0  0  0
   -3.0628   -0.4285   -3.4194 C   0  0  0  0  0  0
   -2.1941   -0.4930   -2.3313 C   0  0  0  0  0  0
    0.9578    0.8261    1.0793 N   0  0  0  0  0  0
    3.6476   -0.1554    0.8556 C   0  0  0  0  0  0
    4.7813   -0.8270    0.3757 C   0  0  0  0  0  0
    5.4247   -2.3431    0.8791 S   0  0  0  0  0  0
    7.3210   -3.0295   -0.5202 H   0  0  0  0  0  0
    5.7908    1.3279   -2.0499 H   0  0  0  0  0  0
    3.7475    2.5001   -1.2909 H   0  0  0  0  0  0
   -2.1303    1.8952    0.4046 H   0  0  0  0  0  0
   -3.6650   -0.1283    2.4823 H   0  0  0  0  0  0
   -2.7091    0.0269    3.9370 H   0  0  0  0  0  0
   -2.1811   -2.1391    3.0134 H   0  0  0  0  0  0
   -0.7674   -1.1233    2.7427 H   0  0  0  0  0  0
   -1.2538   -2.2963    0.6752 H   0  0  0  0  0  0
   -2.9510   -1.9016    0.7768 H   0  0  0  0  0  0
   -0.6940   -0.4246   -0.3179 H   0  0  0  0  0  0
   -4.3506    0.4672    0.1285 H   0  0  0  0  0  0
   -5.8752    0.5860   -1.8066 H   0  0  0  0  0  0
   -5.0544    0.0295   -4.0825 H   0  0  0  0  0  0
   -2.7067   -0.6834   -4.4131 H   0  0  0  0  0  0
   -1.1673   -0.8141   -2.5025 H   0  0  0  0  0  0
    3.0494   -0.5906    1.6538 H   0  0  0  0  0  0
   -2.0431    1.2147    2.3619 N   0  3  0  0  0  0
   -1.2459    1.4550    2.9627 H   0  0  0  0  0  0
   -2.7519    1.9552    2.4214 H   0  0  0  0  0  0
  1  2  2  0  0  0
  1 25  1  0  0  0
  1 26  1  0  0  0
  2  3  1  0  0  0
  3  4  2  0  0  0
  3 24  1  0  0  0
  4  5  1  0  0  0
  4 27  1  0  0  0
  5  6  2  0  0  0
  5 28  1  0  0  0
  6  7  1  0  0  0
  6 23  1  0  0  0
  7  8  2  0  0  0
  7 22  1  0  0  0
  8  9  1  0  0  0
  9 10  1  0  0  0
 10 11  1  0  0  0
 10 22  2  0  0  0
 11 15  1  0  0  0
 11 29  1  0  0  0
 11 43  1  0  0  0
 12 13  1  0  0  0
 12 30  1  0  0  0
 12 31  1  0  0  0
 12 43  1  0  0  0
 13 14  1  0  0  0
 13 32  1  0  0  0
 13 33  1  0  0  0
 14 15  1  0  0  0
 14 34  1  0  0  0
 14 35  1  0  0  0
 15 16  1  0  0  0
 15 36  1  0  0  0
 16 17  2  0  0  0
 16 21  1  0  0  0
 17 18  1  0  0  0
 17 37  1  0  0  0
 18 19  2  0  0  0
 18 38  1  0  0  0
 19 20  1  0  0  0
 19 39  1  0  0  0
 20 21  2  0  0  0
 20 40  1  0  0  0
 21 41  1  0  0  0
 23 24  2  0  0  0
 23 42  1  0  0  0
 24 25  1  0  0  0
 43 44  1  0  0  0
 43 45  1  0  0  0
M  CHG  1  43   1
M  END
> <energy>
102.047

> <i_ionizer_Ion_state_n>
1

> <i_ionizer_Tot_Q>
1

> <s_ionizer_Ion_centers>
43

> <s_ionizer_Ion_types>
N5

> <s_ionizer_Ion_ctrs_in>
12

> <r_ionizer_Ionization_penalty>
0.000148807

> <r_ionizer_Ionization_penalty_charging>
0.000148807

> <r_ionizer_Ionization_penalty_neutral>
0

$$$$
ZINC001211869819
                    3D
 Schrodinger Suite 2019-4.
 45 49  0  0  1  0            999 V2000
    6.4901   -3.1628    0.5690 C   0  0  0  0  0  0
    6.8533   -1.9178    0.3585 N   0  0  0  0  0  0
    5.7251   -1.1388    0.1632 C   0  0  0  0  0  0
    5.7067    0.2485   -0.0852 C   0  0  0  0  0  0
    4.4834    0.9060   -0.2680 C   0  0  0  0  0  0
    3.2741    0.2061   -0.1939 C   0  0  0  0  0  0
    2.0040    0.8992   -0.3383 C   0  0  0  0  0  0
    1.8059    1.9424   -1.1589 N   0  0  0  0  0  0
    0.4595    2.2572   -0.9652 O   0  0  0  0  0  0
   -0.0094    1.3905   -0.0178 C   0  0  0  0  0  0
   -1.4310    1.5658    0.4484 C   0  0  2  0  0  0
   -3.0883    3.2044    1.2179 C   0  0  0  0  0  0
   -4.0625    2.0434    1.0119 C   0  0  0  0  0  0
   -3.8767    1.3987   -0.3557 C   0  0  0  0  0  0
   -2.4214    0.9281   -0.5715 C   0  0  2  0  0  0
   -2.3638   -0.5969   -0.5977 C   0  0  0  0  0  0
   -2.2369   -1.2503   -1.8345 C   0  0  0  0  0  0
   -2.1848   -2.6408   -1.9050 C   0  0  0  0  0  0
   -2.2545   -3.4012   -0.7420 C   0  0  0  0  0  0
   -2.4005   -2.7723    0.4915 C   0  0  0  0  0  0
   -2.4622   -1.3772    0.5642 C   0  0  0  0  0  0
    0.8976    0.5330    0.3921 N   0  0  0  0  0  0
    3.2751   -1.1722    0.0637 C   0  0  0  0  0  0
    4.5078   -1.8224    0.2319 C   0  0  0  0  0  0
    4.8122   -3.4883    0.5505 S   0  0  0  0  0  0
    7.2112   -3.9453    0.7533 H   0  0  0  0  0  0
    6.6421    0.7972   -0.1239 H   0  0  0  0  0  0
    4.4875    1.9808   -0.4522 H   0  0  0  0  0  0
   -1.4933    1.0650    1.4217 H   0  0  0  0  0  0
   -3.4924    4.1104    0.7497 H   0  0  0  0  0  0
   -3.0180    3.4144    2.2894 H   0  0  0  0  0  0
   -3.9114    1.2907    1.7955 H   0  0  0  0  0  0
   -5.0908    2.4065    1.1156 H   0  0  0  0  0  0
   -4.5967    0.5830   -0.4803 H   0  0  0  0  0  0
   -4.1283    2.1399   -1.1256 H   0  0  0  0  0  0
   -2.1340    1.2818   -1.5735 H   0  0  0  0  0  0
   -2.1786   -0.6767   -2.7584 H   0  0  0  0  0  0
   -2.0856   -3.1307   -2.8686 H   0  0  0  0  0  0
   -2.1982   -4.4838   -0.7968 H   0  0  0  0  0  0
   -2.4674   -3.3684    1.3972 H   0  0  0  0  0  0
   -2.5856   -0.9191    1.5412 H   0  0  0  0  0  0
    2.3422   -1.7270    0.1314 H   0  0  0  0  0  0
   -1.7339    3.0101    0.6648 N   0  3  0  0  0  0
   -1.0471    3.4000    1.3208 H   0  0  0  0  0  0
   -1.6672    3.5028   -0.2336 H   0  0  0  0  0  0
  1  2  2  0  0  0
  1 25  1  0  0  0
  1 26  1  0  0  0
  2  3  1  0  0  0
  3  4  2  0  0  0
  3 24  1  0  0  0
  4  5  1  0  0  0
  4 27  1  0  0  0
  5  6  2  0  0  0
  5 28  1  0  0  0
  6  7  1  0  0  0
  6 23  1  0  0  0
  7  8  2  0  0  0
  7 22  1  0  0  0
  8  9  1  0  0  0
  9 10  1  0  0  0
 10 11  1  0  0  0
 10 22  2  0  0  0
 11 15  1  0  0  0
 11 29  1  0  0  0
 11 43  1  0  0  0
 12 13  1  0  0  0
 12 30  1  0  0  0
 12 31  1  0  0  0
 12 43  1  0  0  0
 13 14  1  0  0  0
 13 32  1  0  0  0
 13 33  1  0  0  0
 14 15  1  0  0  0
 14 34  1  0  0  0
 14 35  1  0  0  0
 15 16  1  0  0  0
 15 36  1  0  0  0
 16 17  2  0  0  0
 16 21  1  0  0  0
 17 18  1  0  0  0
 17 37  1  0  0  0
 18 19  2  0  0  0
 18 38  1  0  0  0
 19 20  1  0  0  0
 19 39  1  0  0  0
 20 21  2  0  0  0
 20 40  1  0  0  0
 21 41  1  0  0  0
 23 24  2  0  0  0
 23 42  1  0  0  0
 24 25  1  0  0  0
 43 44  1  0  0  0
 43 45  1  0  0  0
M  CHG  1  43   1
M  END
> <energy>
94.1075

> <i_ionizer_Ion_state_n>
1

> <i_ionizer_Tot_Q>
1

> <s_ionizer_Ion_centers>
43

> <s_ionizer_Ion_types>
N5

> <s_ionizer_Ion_ctrs_in>
12

> <r_ionizer_Ionization_penalty>
0.000148807

> <r_ionizer_Ionization_penalty_charging>
0.000148807

> <r_ionizer_Ionization_penalty_neutral>
0

$$$$
ZINC001211869820
                    3D
 Schrodinger Suite 2019-4.
 45 49  0  0  1  0            999 V2000
    6.3642    3.0555    1.3956 C   0  0  0  0  0  0
    6.7402    1.8045    1.2671 N   0  0  0  0  0  0
    5.6219    1.0037    1.1103 C   0  0  0  0  0  0
    5.6251   -0.3959    0.9495 C   0  0  0  0  0  0
    4.4119   -1.0778    0.7760 C   0  0  0  0  0  0
    3.1933   -0.3869    0.7515 C   0  0  0  0  0  0
    1.9469   -1.0989    0.5080 C   0  0  0  0  0  0
    1.7215   -2.3594    0.9029 N   0  0  0  0  0  0
    0.4583   -2.6434    0.3902 O   0  0  0  0  0  0
    0.0286   -1.5165   -0.2604 C   0  0  0  0  0  0
   -1.2839   -1.6395   -1.0011 C   0  0  2  0  0  0
   -3.5372   -2.6448   -0.9742 C   0  0  0  0  0  0
   -3.6114   -1.9929   -2.3520 C   0  0  0  0  0  0
   -3.1623   -0.5298   -2.3343 C   0  0  0  0  0  0
   -1.9048   -0.2859   -1.4565 C   0  0  1  0  0  0
   -2.1714    0.7170   -0.3322 C   0  0  0  0  0  0
   -1.2673    1.7729   -0.1326 C   0  0  0  0  0  0
   -1.4768    2.7191    0.8717 C   0  0  0  0  0  0
   -2.5942    2.6276    1.6948 C   0  0  0  0  0  0
   -3.5005    1.5865    1.5169 C   0  0  0  0  0  0
   -3.2902    0.6394    0.5122 C   0  0  0  0  0  0
    0.9115   -0.5392   -0.2143 N   0  0  0  0  0  0
    3.1745    1.0059    0.9286 C   0  0  0  0  0  0
    4.3967    1.6760    1.1093 C   0  0  0  0  0  0
    4.6798    3.3573    1.3519 S   0  0  0  0  0  0
    7.0758    3.8563    1.5321 H   0  0  0  0  0  0
    6.5689   -0.9312    0.9462 H   0  0  0  0  0  0
    4.4367   -2.1571    0.6306 H   0  0  0  0  0  0
   -1.0039   -2.1855   -1.9151 H   0  0  0  0  0  0
   -3.7465   -3.7158   -1.0700 H   0  0  0  0  0  0
   -4.3346   -2.2470   -0.3355 H   0  0  0  0  0  0
   -2.9853   -2.5541   -3.0563 H   0  0  0  0  0  0
   -4.6358   -2.0615   -2.7363 H   0  0  0  0  0  0
   -4.0026    0.1084   -2.0367 H   0  0  0  0  0  0
   -2.9362   -0.2396   -3.3675 H   0  0  0  0  0  0
   -1.1728    0.1922   -2.1263 H   0  0  0  0  0  0
   -0.3815    1.8682   -0.7599 H   0  0  0  0  0  0
   -0.7658    3.5266    1.0121 H   0  0  0  0  0  0
   -2.7620    3.3629    2.4752 H   0  0  0  0  0  0
   -4.3755    1.5087    2.1548 H   0  0  0  0  0  0
   -4.0286   -0.1465    0.3938 H   0  0  0  0  0  0
    2.2384    1.5567    0.9246 H   0  0  0  0  0  0
   -2.2486   -2.5091   -0.2582 N   0  3  0  0  0  0
   -1.8338   -3.4412   -0.1428 H   0  0  0  0  0  0
   -2.4243   -2.0959    0.6652 H   0  0  0  0  0  0
  1  2  2  0  0  0
  1 25  1  0  0  0
  1 26  1  0  0  0
  2  3  1  0  0  0
  3  4  2  0  0  0
  3 24  1  0  0  0
  4  5  1  0  0  0
  4 27  1  0  0  0
  5  6  2  0  0  0
  5 28  1  0  0  0
  6  7  1  0  0  0
  6 23  1  0  0  0
  7  8  2  0  0  0
  7 22  1  0  0  0
  8  9  1  0  0  0
  9 10  1  0  0  0
 10 11  1  0  0  0
 10 22  2  0  0  0
 11 15  1  0  0  0
 11 29  1  0  0  0
 11 43  1  0  0  0
 12 13  1  0  0  0
 12 30  1  0  0  0
 12 31  1  0  0  0
 12 43  1  0  0  0
 13 14  1  0  0  0
 13 32  1  0  0  0
 13 33  1  0  0  0
 14 15  1  0  0  0
 14 34  1  0  0  0
 14 35  1  0  0  0
 15 16  1  0  0  0
 15 36  1  0  0  0
 16 17  2  0  0  0
 16 21  1  0  0  0
 17 18  1  0  0  0
 17 37  1  0  0  0
 18 19  2  0  0  0
 18 38  1  0  0  0
 19 20  1  0  0  0
 19 39  1  0  0  0
 20 21  2  0  0  0
 20 40  1  0  0  0
 21 41  1  0  0  0
 23 24  2  0  0  0
 23 42  1  0  0  0
 24 25  1  0  0  0
 43 44  1  0  0  0
 43 45  1  0  0  0
M  CHG  1  43   1
M  END
> <energy>
99.9302

> <i_ionizer_Ion_state_n>
1

> <i_ionizer_Tot_Q>
1

> <s_ionizer_Ion_centers>
43

> <s_ionizer_Ion_types>
N5

> <s_ionizer_Ion_ctrs_in>
12

> <r_ionizer_Ionization_penalty>
0.000148807

> <r_ionizer_Ionization_penalty_charging>
0.000148807

> <r_ionizer_Ionization_penalty_neutral>
0

$$$$
ZINC001211869825
                    3D
 Schrodinger Suite 2019-4.
 46 49  0  0  1  0            999 V2000
   -4.6075   -0.0152    1.6691 C   0  0  0  0  0  0
   -4.4446    0.6481    0.3287 C   0  0  0  0  0  0
   -5.5995    1.0534   -0.3638 C   0  0  0  0  0  0
   -5.5048    1.6626   -1.6161 C   0  0  0  0  0  0
   -4.2546    1.8733   -2.1869 C   0  0  0  0  0  0
   -4.1411    2.6195   -3.7342 Cl  0  0  0  0  0  0
   -3.0954    1.4882   -1.5158 C   0  0  0  0  0  0
   -3.1775    0.8810   -0.2521 C   0  0  0  0  0  0
   -1.9369    0.4899    0.4038 C   0  0  0  0  0  0
   -1.6031    0.8417    1.6554 N   0  0  0  0  0  0
   -0.3785    0.2067    1.8591 O   0  0  0  0  0  0
   -0.0970   -0.4717    0.7073 C   0  0  0  0  0  0
    1.1323   -1.3413    0.7183 C   0  0  2  0  0  0
    1.8049   -3.6889    0.2515 C   0  0  0  0  0  0
    3.2037   -3.1014    0.3791 C   0  0  0  0  0  0
    3.3529   -1.8555   -0.4854 C   0  0  0  0  0  0
    2.1314   -0.9077   -0.3900 C   0  0  2  0  0  0
    2.6137    0.5309   -0.2408 C   0  0  0  0  0  0
    3.2909    0.9703    0.9082 C   0  0  0  0  0  0
    3.7499    2.2867    1.0026 C   0  0  0  0  0  0
    3.5376    3.1762   -0.0470 C   0  0  0  0  0  0
    2.8549    2.7578   -1.1867 C   0  0  0  0  0  0
    2.3964    1.4424   -1.2831 C   0  0  0  0  0  0
   -1.0075   -0.3036   -0.2272 N   0  0  0  0  0  0
   -3.9898   -0.9163    1.7355 H   0  0  0  0  0  0
   -5.6429   -0.3321    1.8347 H   0  0  0  0  0  0
   -4.3388    0.6791    2.4701 H   0  0  0  0  0  0
   -6.5848    0.8898    0.0682 H   0  0  0  0  0  0
   -6.4100    1.9618   -2.1401 H   0  0  0  0  0  0
   -2.1236    1.6605   -1.9743 H   0  0  0  0  0  0
    1.6100   -1.2376    1.7028 H   0  0  0  0  0  0
    1.7177   -4.5712    0.8957 H   0  0  0  0  0  0
    1.6570   -4.0458   -0.7744 H   0  0  0  0  0  0
    3.9524   -3.8459    0.0865 H   0  0  0  0  0  0
    3.4079   -2.8491    1.4279 H   0  0  0  0  0  0
    4.2974   -1.3632   -0.2205 H   0  0  0  0  0  0
    3.4722   -2.1602   -1.5337 H   0  0  0  0  0  0
    1.6022   -0.9840   -1.3523 H   0  0  0  0  0  0
    3.4865    0.2926    1.7370 H   0  0  0  0  0  0
    4.2745    2.6179    1.8955 H   0  0  0  0  0  0
    3.9072    4.1960    0.0182 H   0  0  0  0  0  0
    2.6811    3.4508   -2.0053 H   0  0  0  0  0  0
    1.8643    1.1328   -2.1807 H   0  0  0  0  0  0
    0.6884   -2.7715    0.5715 N   0  3  0  0  0  0
    0.2582   -3.0739    1.4534 H   0  0  0  0  0  0
   -0.0056   -2.8240   -0.1834 H   0  0  0  0  0  0
  1  2  1  0  0  0
  1 25  1  0  0  0
  1 26  1  0  0  0
  1 27  1  0  0  0
  2  3  2  0  0  0
  2  8  1  0  0  0
  3  4  1  0  0  0
  3 28  1  0  0  0
  4  5  2  0  0  0
  4 29  1  0  0  0
  5  6  1  0  0  0
  5  7  1  0  0  0
  7  8  2  0  0  0
  7 30  1  0  0  0
  8  9  1  0  0  0
  9 10  2  0  0  0
  9 24  1  0  0  0
 10 11  1  0  0  0
 11 12  1  0  0  0
 12 13  1  0  0  0
 12 24  2  0  0  0
 13 17  1  0  0  0
 13 31  1  0  0  0
 13 44  1  0  0  0
 14 15  1  0  0  0
 14 32  1  0  0  0
 14 33  1  0  0  0
 14 44  1  0  0  0
 15 16  1  0  0  0
 15 34  1  0  0  0
 15 35  1  0  0  0
 16 17  1  0  0  0
 16 36  1  0  0  0
 16 37  1  0  0  0
 17 18  1  0  0  0
 17 38  1  0  0  0
 18 19  2  0  0  0
 18 23  1  0  0  0
 19 20  1  0  0  0
 19 39  1  0  0  0
 20 21  2  0  0  0
 20 40  1  0  0  0
 21 22  1  0  0  0
 21 41  1  0  0  0
 22 23  2  0  0  0
 22 42  1  0  0  0
 23 43  1  0  0  0
 44 45  1  0  0  0
 44 46  1  0  0  0
M  CHG  1  44   1
M  END
> <energy>
94.8759

> <i_ionizer_Ion_state_n>
1

> <i_ionizer_Tot_Q>
1

> <s_ionizer_Ion_centers>
44

> <s_ionizer_Ion_types>
N5

> <s_ionizer_Ion_ctrs_in>
14

> <r_ionizer_Ionization_penalty>
0.000148807

> <r_ionizer_Ionization_penalty_charging>
0.000148807

> <r_ionizer_Ionization_penalty_neutral>
0

$$$$
ZINC001211869826
                    3D
 Schrodinger Suite 2019-4.
 46 49  0  0  1  0            999 V2000
   -3.2738    1.1146   -1.4475 C   0  0  0  0  0  0
   -4.0448    0.6500   -0.2402 C   0  0  0  0  0  0
   -5.4423    0.8237   -0.2349 C   0  0  0  0  0  0
   -6.2091    0.4296    0.8617 C   0  0  0  0  0  0
   -5.5886   -0.1443    1.9651 C   0  0  0  0  0  0
   -6.5339   -0.6244    3.3208 Cl  0  0  0  0  0  0
   -4.2086   -0.3372    1.9770 C   0  0  0  0  0  0
   -3.4196    0.0443    0.8743 C   0  0  0  0  0  0
   -1.9808   -0.2222    0.9252 C   0  0  0  0  0  0
   -1.2676   -0.2233    2.0631 N   0  0  0  0  0  0
    0.0122   -0.5942    1.6548 O   0  0  0  0  0  0
   -0.0486   -0.7713    0.3042 C   0  0  0  0  0  0
    1.1865   -1.2579   -0.4032 C   0  0  1  0  0  0
    2.3856   -3.2768   -1.0715 C   0  0  0  0  0  0
    3.6983   -2.7382   -0.5149 C   0  0  0  0  0  0
    3.7276   -1.2152   -0.5440 C   0  0  0  0  0  0
    2.4901   -0.6243    0.1599 C   0  0  1  0  0  0
    2.5480    0.8950    0.0648 C   0  0  0  0  0  0
    2.8817    1.6445    1.2038 C   0  0  0  0  0  0
    2.9719    3.0359    1.1407 C   0  0  0  0  0  0
    2.7296    3.6957   -0.0610 C   0  0  0  0  0  0
    2.4047    2.9651   -1.2014 C   0  0  0  0  0  0
    2.3164    1.5732   -1.1416 C   0  0  0  0  0  0
   -1.2494   -0.5624   -0.1912 N   0  0  0  0  0  0
   -2.4019    1.7037   -1.1467 H   0  0  0  0  0  0
   -2.9566    0.2606   -2.0533 H   0  0  0  0  0  0
   -3.8857    1.7642   -2.0826 H   0  0  0  0  0  0
   -5.9442    1.2770   -1.0884 H   0  0  0  0  0  0
   -7.2865    0.5745    0.8491 H   0  0  0  0  0  0
   -3.7450   -0.8011    2.8461 H   0  0  0  0  0  0
    1.0713   -0.9783   -1.4594 H   0  0  0  0  0  0
    2.3798   -4.3687   -0.9795 H   0  0  0  0  0  0
    2.2998   -3.0458   -2.1402 H   0  0  0  0  0  0
    4.5366   -3.1317   -1.1002 H   0  0  0  0  0  0
    3.8361   -3.0878    0.5167 H   0  0  0  0  0  0
    3.7703   -0.8796   -1.5891 H   0  0  0  0  0  0
    4.6457   -0.8558   -0.0624 H   0  0  0  0  0  0
    2.5628   -0.9002    1.2222 H   0  0  0  0  0  0
    3.0777    1.1481    2.1522 H   0  0  0  0  0  0
    3.2336    3.6016    2.0315 H   0  0  0  0  0  0
    2.8001    4.7790   -0.1085 H   0  0  0  0  0  0
    2.2240    3.4804   -2.1406 H   0  0  0  0  0  0
    2.0774    1.0311   -2.0524 H   0  0  0  0  0  0
    1.2298   -2.7499   -0.3310 N   0  3  0  0  0  0
    1.3009   -3.0372    0.6522 H   0  0  0  0  0  0
    0.3676   -3.1315   -0.7375 H   0  0  0  0  0  0
  1  2  1  0  0  0
  1 25  1  0  0  0
  1 26  1  0  0  0
  1 27  1  0  0  0
  2  3  2  0  0  0
  2  8  1  0  0  0
  3  4  1  0  0  0
  3 28  1  0  0  0
  4  5  2  0  0  0
  4 29  1  0  0  0
  5  6  1  0  0  0
  5  7  1  0  0  0
  7  8  2  0  0  0
  7 30  1  0  0  0
  8  9  1  0  0  0
  9 10  2  0  0  0
  9 24  1  0  0  0
 10 11  1  0  0  0
 11 12  1  0  0  0
 12 13  1  0  0  0
 12 24  2  0  0  0
 13 17  1  0  0  0
 13 31  1  0  0  0
 13 44  1  0  0  0
 14 15  1  0  0  0
 14 32  1  0  0  0
 14 33  1  0  0  0
 14 44  1  0  0  0
 15 16  1  0  0  0
 15 34  1  0  0  0
 15 35  1  0  0  0
 16 17  1  0  0  0
 16 36  1  0  0  0
 16 37  1  0  0  0
 17 18  1  0  0  0
 17 38  1  0  0  0
 18 19  2  0  0  0
 18 23  1  0  0  0
 19 20  1  0  0  0
 19 39  1  0  0  0
 20 21  2  0  0  0
 20 40  1  0  0  0
 21 22  1  0  0  0
 21 41  1  0  0  0
 22 23  2  0  0  0
 22 42  1  0  0  0
 23 43  1  0  0  0
 44 45  1  0  0  0
 44 46  1  0  0  0
M  CHG  1  44   1
M  END
> <energy>
85.7746

> <i_ionizer_Ion_state_n>
1

> <i_ionizer_Tot_Q>
1

> <s_ionizer_Ion_centers>
44

> <s_ionizer_Ion_types>
N5

> <s_ionizer_Ion_ctrs_in>
14

> <r_ionizer_Ionization_penalty>
0.000148807

> <r_ionizer_Ionization_penalty_charging>
0.000148807

> <r_ionizer_Ionization_penalty_neutral>
0

$$$$
ZINC001211869827
                    3D
 Schrodinger Suite 2019-4.
 46 49  0  0  1  0            999 V2000
   -3.5205    1.3899   -0.5688 C   0  0  0  0  0  0
   -3.8735    0.0357   -0.0095 C   0  0  0  0  0  0
   -5.0963   -0.1104    0.6725 C   0  0  0  0  0  0
   -5.4615   -1.3397    1.2241 C   0  0  0  0  0  0
   -4.6129   -2.4346    1.0993 C   0  0  0  0  0  0
   -5.0639   -3.9492    1.7835 Cl  0  0  0  0  0  0
   -3.4002   -2.3135    0.4238 C   0  0  0  0  0  0
   -3.0224   -1.0853   -0.1452 C   0  0  0  0  0  0
   -1.7318   -1.0119   -0.8184 C   0  0  0  0  0  0
   -1.5391   -0.4588   -2.0265 N   0  0  0  0  0  0
   -0.1597   -0.5331   -2.2058 O   0  0  0  0  0  0
    0.3464   -1.1295   -1.0843 C   0  0  0  0  0  0
    1.8494   -1.1882   -0.9773 C   0  0  1  0  0  0
    3.7422   -2.0444    0.3068 C   0  0  0  0  0  0
    4.3830   -0.6637    0.3882 C   0  0  0  0  0  0
    3.9913    0.2120   -0.8003 C   0  0  0  0  0  0
    2.4710    0.2436   -1.0557 C   0  0  2  0  0  0
    1.7903    1.3292   -0.2222 C   0  0  0  0  0  0
    1.5008    2.5686   -0.8210 C   0  0  0  0  0  0
    0.8396    3.5719   -0.1106 C   0  0  0  0  0  0
    0.4679    3.3576    1.2121 C   0  0  0  0  0  0
    0.7589    2.1398    1.8233 C   0  0  0  0  0  0
    1.4198    1.1349    1.1142 C   0  0  0  0  0  0
   -0.5875   -1.5165   -0.2418 N   0  0  0  0  0  0
   -4.1775    2.1693   -0.1679 H   0  0  0  0  0  0
   -2.4984    1.6706   -0.2942 H   0  0  0  0  0  0
   -3.6281    1.3898   -1.6581 H   0  0  0  0  0  0
   -5.7676    0.7395    0.7877 H   0  0  0  0  0  0
   -6.4063   -1.4326    1.7530 H   0  0  0  0  0  0
   -2.7424   -3.1746    0.3371 H   0  0  0  0  0  0
    2.2025   -1.7476   -1.8554 H   0  0  0  0  0  0
    4.1408   -2.6021   -0.5471 H   0  0  0  0  0  0
    4.0049   -2.6131    1.2054 H   0  0  0  0  0  0
    4.0955   -0.1697    1.3238 H   0  0  0  0  0  0
    5.4741   -0.7693    0.4180 H   0  0  0  0  0  0
    4.4817   -0.1952   -1.6937 H   0  0  0  0  0  0
    4.3923    1.2232   -0.6609 H   0  0  0  0  0  0
    2.3523    0.5580   -2.1049 H   0  0  0  0  0  0
    1.7770    2.7581   -1.8559 H   0  0  0  0  0  0
    0.6112    4.5177   -0.5961 H   0  0  0  0  0  0
   -0.0481    4.1369    1.7654 H   0  0  0  0  0  0
    0.4647    1.9666    2.8548 H   0  0  0  0  0  0
    1.6195    0.1920    1.6193 H   0  0  0  0  0  0
    2.2784   -1.9550    0.2302 N   0  3  0  0  0  0
    1.9269   -1.4815    1.0707 H   0  0  0  0  0  0
    1.8866   -2.9029    0.1824 H   0  0  0  0  0  0
  1  2  1  0  0  0
  1 25  1  0  0  0
  1 26  1  0  0  0
  1 27  1  0  0  0
  2  3  2  0  0  0
  2  8  1  0  0  0
  3  4  1  0  0  0
  3 28  1  0  0  0
  4  5  2  0  0  0
  4 29  1  0  0  0
  5  6  1  0  0  0
  5  7  1  0  0  0
  7  8  2  0  0  0
  7 30  1  0  0  0
  8  9  1  0  0  0
  9 10  2  0  0  0
  9 24  1  0  0  0
 10 11  1  0  0  0
 11 12  1  0  0  0
 12 13  1  0  0  0
 12 24  2  0  0  0
 13 17  1  0  0  0
 13 31  1  0  0  0
 13 44  1  0  0  0
 14 15  1  0  0  0
 14 32  1  0  0  0
 14 33  1  0  0  0
 14 44  1  0  0  0
 15 16  1  0  0  0
 15 34  1  0  0  0
 15 35  1  0  0  0
 16 17  1  0  0  0
 16 36  1  0  0  0
 16 37  1  0  0  0
 17 18  1  0  0  0
 17 38  1  0  0  0
 18 19  2  0  0  0
 18 23  1  0  0  0
 19 20  1  0  0  0
 19 39  1  0  0  0
 20 21  2  0  0  0
 20 40  1  0  0  0
 21 22  1  0  0  0
 21 41  1  0  0  0
 22 23  2  0  0  0
 22 42  1  0  0  0
 23 43  1  0  0  0
 44 45  1  0  0  0
 44 46  1  0  0  0
M  CHG  1  44   1
M  END
> <energy>
90.3929

> <i_ionizer_Ion_state_n>
1

> <i_ionizer_Tot_Q>
1

> <s_ionizer_Ion_centers>
44

> <s_ionizer_Ion_types>
N5

> <s_ionizer_Ion_ctrs_in>
14

> <r_ionizer_Ionization_penalty>
0.000148807

> <r_ionizer_Ionization_penalty_charging>
0.000148807

> <r_ionizer_Ionization_penalty_neutral>
0

$$$$
ZINC001211869828
                    3D
 Schrodinger Suite 2019-4.
 46 49  0  0  1  0            999 V2000
   -0.8591    2.8689    2.2474 C   0  0  0  0  0  0
   -0.7420    3.8069    1.0792 C   0  0  0  0  0  0
   -0.5865    5.1850    1.3286 C   0  0  0  0  0  0
   -0.5708    6.1057    0.2831 C   0  0  0  0  0  0
   -0.7286    5.6602   -1.0207 C   0  0  0  0  0  0
   -0.7523    6.7996   -2.3014 Cl  0  0  0  0  0  0
   -0.8277    4.2981   -1.3002 C   0  0  0  0  0  0
   -0.7859    3.3510   -0.2538 C   0  0  0  0  0  0
   -0.6939    1.9255   -0.5976 C   0  0  0  0  0  0
   -1.4336    1.3379   -1.5524 N   0  0  0  0  0  0
   -0.8433    0.0832   -1.7210 O   0  0  0  0  0  0
    0.2238    0.0355   -0.8584 C   0  0  0  0  0  0
    1.2643   -1.0284   -1.1761 C   0  0  2  0  0  0
    2.8306   -0.9238    0.6562 C   0  0  0  0  0  0
    2.9135   -2.4201    0.8948 C   0  0  0  0  0  0
    1.9786   -3.2656    0.0324 C   0  0  0  0  0  0
    0.9514   -2.5272   -0.8754 C   0  0  1  0  0  0
   -0.4796   -2.9010   -0.5199 C   0  0  0  0  0  0
   -1.0811   -2.4887    0.6729 C   0  0  0  0  0  0
   -2.3837   -2.8949    0.9880 C   0  0  0  0  0  0
   -3.1044   -3.7049    0.1158 C   0  0  0  0  0  0
   -2.5245   -4.1036   -1.0832 C   0  0  0  0  0  0
   -1.2244   -3.7095   -1.3954 C   0  0  0  0  0  0
    0.3001    1.1036   -0.0905 N   0  0  0  0  0  0
   -1.6563    2.1364    2.0788 H   0  0  0  0  0  0
   -1.1269    3.4172    3.1562 H   0  0  0  0  0  0
    0.0838    2.3515    2.4280 H   0  0  0  0  0  0
   -0.4692    5.5423    2.3475 H   0  0  0  0  0  0
   -0.4329    7.1630    0.4979 H   0  0  0  0  0  0
   -0.9018    3.9698   -2.3371 H   0  0  0  0  0  0
    1.3095   -0.9768   -2.2732 H   0  0  0  0  0  0
    3.7738   -0.4502    0.9703 H   0  0  0  0  0  0
    2.0525   -0.4734    1.2845 H   0  0  0  0  0  0
    3.9425   -2.7566    0.6977 H   0  0  0  0  0  0
    2.7320   -2.6347    1.9560 H   0  0  0  0  0  0
    2.6431   -3.8261   -0.6447 H   0  0  0  0  0  0
    1.5105   -4.0528    0.6405 H   0  0  0  0  0  0
    1.1404   -3.0100   -1.8475 H   0  0  0  0  0  0
   -0.5550   -1.8528    1.3795 H   0  0  0  0  0  0
   -2.8435   -2.5825    1.9167 H   0  0  0  0  0  0
   -4.1118   -4.0318    0.3670 H   0  0  0  0  0  0
   -3.0799   -4.7440   -1.7649 H   0  0  0  0  0  0
   -0.7957   -4.0368   -2.3374 H   0  0  0  0  0  0
    2.6315   -0.6257   -0.7575 N   0  3  0  0  0  0
    3.3230   -1.1417   -1.3141 H   0  0  0  0  0  0
    2.7511    0.3823   -0.9122 H   0  0  0  0  0  0
  1  2  1  0  0  0
  1 25  1  0  0  0
  1 26  1  0  0  0
  1 27  1  0  0  0
  2  3  2  0  0  0
  2  8  1  0  0  0
  3  4  1  0  0  0
  3 28  1  0  0  0
  4  5  2  0  0  0
  4 29  1  0  0  0
  5  6  1  0  0  0
  5  7  1  0  0  0
  7  8  2  0  0  0
  7 30  1  0  0  0
  8  9  1  0  0  0
  9 10  2  0  0  0
  9 24  1  0  0  0
 10 11  1  0  0  0
 11 12  1  0  0  0
 12 13  1  0  0  0
 12 24  2  0  0  0
 13 17  1  0  0  0
 13 31  1  0  0  0
 13 44  1  0  0  0
 14 15  1  0  0  0
 14 32  1  0  0  0
 14 33  1  0  0  0
 14 44  1  0  0  0
 15 16  1  0  0  0
 15 34  1  0  0  0
 15 35  1  0  0  0
 16 17  1  0  0  0
 16 36  1  0  0  0
 16 37  1  0  0  0
 17 18  1  0  0  0
 17 38  1  0  0  0
 18 19  2  0  0  0
 18 23  1  0  0  0
 19 20  1  0  0  0
 19 39  1  0  0  0
 20 21  2  0  0  0
 20 40  1  0  0  0
 21 22  1  0  0  0
 21 41  1  0  0  0
 22 23  2  0  0  0
 22 42  1  0  0  0
 23 43  1  0  0  0
 44 45  1  0  0  0
 44 46  1  0  0  0
M  CHG  1  44   1
M  END
> <energy>
112.451

> <i_ionizer_Ion_state_n>
1

> <i_ionizer_Tot_Q>
1

> <s_ionizer_Ion_centers>
44

> <s_ionizer_Ion_types>
N5

> <s_ionizer_Ion_ctrs_in>
14

> <r_ionizer_Ionization_penalty>
0.000148807

> <r_ionizer_Ionization_penalty_charging>
0.000148807

> <r_ionizer_Ionization_penalty_neutral>
0

$$$$
ZINC001211869845
                    3D
 Schrodinger Suite 2019-4.
 49 52  0  0  1  0            999 V2000
    5.7070    1.5819   -1.8886 C   0  0  0  0  0  0
    4.4687    0.7453   -2.1821 C   0  0  0  0  0  0
    3.8829    0.1399   -0.9325 C   0  0  0  0  0  0
    2.6802    0.6216   -0.3897 C   0  0  0  0  0  0
    2.1468    0.0642    0.7851 C   0  0  0  0  0  0
    0.8699    0.5272    1.3104 C   0  0  0  0  0  0
    0.5434    0.4938    2.6118 N   0  0  0  0  0  0
   -0.8058    0.8376    2.6215 O   0  0  0  0  0  0
   -1.1629    1.0489    1.3218 C   0  0  0  0  0  0
   -2.6356    1.2201    1.0626 C   0  0  2  0  0  0
   -2.6772    2.8563   -0.7832 C   0  0  0  0  0  0
   -3.3225    1.8369   -1.7161 C   0  0  0  0  0  0
   -2.8819    0.4213   -1.3631 C   0  0  0  0  0  0
   -3.1863    0.1065    0.1144 C   0  0  1  0  0  0
   -2.7901   -1.3061    0.5483 C   0  0  0  0  0  0
   -1.7135   -1.9976   -0.0329 C   0  0  0  0  0  0
   -1.3484   -3.2704    0.4108 C   0  0  0  0  0  0
   -2.0495   -3.8756    1.4461 C   0  0  0  0  0  0
   -3.1180   -3.2067    2.0388 C   0  0  0  0  0  0
   -3.4848   -1.9310    1.5959 C   0  0  0  0  0  0
   -0.1492    0.9534    0.4855 N   0  0  0  0  0  0
    2.8298   -0.9861    1.4173 C   0  0  0  0  0  0
    4.0191   -1.4776    0.8793 C   0  0  0  0  0  0
    4.5331   -0.9152   -0.2850 C   0  0  0  0  0  0
    5.6748   -1.4059   -0.7860 F   0  0  0  0  0  0
    6.5297    0.9599   -1.5205 H   0  0  0  0  0  0
    6.0515    2.0855   -2.7974 H   0  0  0  0  0  0
    5.5009    2.3461   -1.1317 H   0  0  0  0  0  0
    4.7182   -0.0550   -2.8892 H   0  0  0  0  0  0
    3.7195    1.3715   -2.6814 H   0  0  0  0  0  0
    2.1508    1.4345   -0.8833 H   0  0  0  0  0  0
   -3.1426    1.0877    2.0306 H   0  0  0  0  0  0
   -3.0458    3.8560   -1.0395 H   0  0  0  0  0  0
   -1.5917    2.8781   -0.9345 H   0  0  0  0  0  0
   -4.4143    1.9108   -1.6482 H   0  0  0  0  0  0
   -3.0532    2.0578   -2.7558 H   0  0  0  0  0  0
   -1.8100    0.3341   -1.5773 H   0  0  0  0  0  0
   -3.3965   -0.2996   -2.0101 H   0  0  0  0  0  0
   -4.2825    0.1420    0.1925 H   0  0  0  0  0  0
   -1.1206   -1.5534   -0.8265 H   0  0  0  0  0  0
   -0.5084   -3.7833   -0.0515 H   0  0  0  0  0  0
   -1.7653   -4.8655    1.7928 H   0  0  0  0  0  0
   -3.6664   -3.6761    2.8506 H   0  0  0  0  0  0
   -4.3168   -1.4283    2.0844 H   0  0  0  0  0  0
    2.4238   -1.4445    2.3181 H   0  0  0  0  0  0
    4.5454   -2.2971    1.3583 H   0  0  0  0  0  0
   -3.0219    2.6052    0.6335 N   0  3  0  0  0  0
   -4.0349    2.7207    0.7547 H   0  0  0  0  0  0
   -2.5270    3.2859    1.2217 H   0  0  0  0  0  0
  1  2  1  0  0  0
  1 26  1  0  0  0
  1 27  1  0  0  0
  1 28  1  0  0  0
  2  3  1  0  0  0
  2 29  1  0  0  0
  2 30  1  0  0  0
  3  4  2  0  0  0
  3 24  1  0  0  0
  4  5  1  0  0  0
  4 31  1  0  0  0
  5  6  1  0  0  0
  5 22  2  0  0  0
  6  7  2  0  0  0
  6 21  1  0  0  0
  7  8  1  0  0  0
  8  9  1  0  0  0
  9 10  1  0  0  0
  9 21  2  0  0  0
 10 14  1  0  0  0
 10 32  1  0  0  0
 10 47  1  0  0  0
 11 12  1  0  0  0
 11 33  1  0  0  0
 11 34  1  0  0  0
 11 47  1  0  0  0
 12 13  1  0  0  0
 12 35  1  0  0  0
 12 36  1  0  0  0
 13 14  1  0  0  0
 13 37  1  0  0  0
 13 38  1  0  0  0
 14 15  1  0  0  0
 14 39  1  0  0  0
 15 16  2  0  0  0
 15 20  1  0  0  0
 16 17  1  0  0  0
 16 40  1  0  0  0
 17 18  2  0  0  0
 17 41  1  0  0  0
 18 19  1  0  0  0
 18 42  1  0  0  0
 19 20  2  0  0  0
 19 43  1  0  0  0
 20 44  1  0  0  0
 22 23  1  0  0  0
 22 45  1  0  0  0
 23 24  2  0  0  0
 23 46  1  0  0  0
 24 25  1  0  0  0
 47 48  1  0  0  0
 47 49  1  0  0  0
M  CHG  1  47   1
M  END
> <energy>
90.6816

> <i_ionizer_Ion_state_n>
1

> <i_ionizer_Tot_Q>
1

> <s_ionizer_Ion_centers>
47

> <s_ionizer_Ion_types>
N5

> <s_ionizer_Ion_ctrs_in>
11

> <r_ionizer_Ionization_penalty>
0.000148807

> <r_ionizer_Ionization_penalty_charging>
0.000148807

> <r_ionizer_Ionization_penalty_neutral>
0

$$$$
ZINC001211869846
                    3D
 Schrodinger Suite 2019-4.
 49 52  0  0  1  0            999 V2000
    3.5904    3.5133   -0.3697 C   0  0  0  0  0  0
    4.2332    3.1047    0.9533 C   0  0  0  0  0  0
    3.5744    1.9653    1.6980 C   0  0  0  0  0  0
    2.7151    1.0354    1.0875 C   0  0  0  0  0  0
    2.1476   -0.0321    1.8136 C   0  0  0  0  0  0
    1.2415   -0.9702    1.1527 C   0  0  0  0  0  0
    0.7562   -2.0858    1.7215 N   0  0  0  0  0  0
   -0.1011   -2.6137    0.7538 O   0  0  0  0  0  0
   -0.0517   -1.7579   -0.3073 C   0  0  0  0  0  0
   -0.9176   -2.0801   -1.4964 C   0  0  1  0  0  0
   -0.3277   -0.9726   -3.6460 C   0  0  0  0  0  0
   -0.5416    0.3568   -2.9284 C   0  0  0  0  0  0
   -1.7140    0.3137   -1.9465 C   0  0  0  0  0  0
   -2.1410   -1.1290   -1.6149 C   0  0  2  0  0  0
   -3.1548   -1.2034   -0.4782 C   0  0  0  0  0  0
   -2.8892   -0.6922    0.8023 C   0  0  0  0  0  0
   -3.8481   -0.7642    1.8144 C   0  0  0  0  0  0
   -5.0966   -1.3237    1.5593 C   0  0  0  0  0  0
   -5.3759   -1.8435    0.2982 C   0  0  0  0  0  0
   -4.4098   -1.7916   -0.7114 C   0  0  0  0  0  0
    0.7776   -0.7542   -0.1263 N   0  0  0  0  0  0
    2.4541   -0.1614    3.1744 C   0  0  0  0  0  0
    3.3040    0.7521    3.7949 C   0  0  0  0  0  0
    3.8608    1.7932    3.0580 C   0  0  0  0  0  0
    4.6905    2.6460    3.6784 F   0  0  0  0  0  0
    2.5243    3.7265   -0.2441 H   0  0  0  0  0  0
    4.0664    4.4195   -0.7606 H   0  0  0  0  0  0
    3.6983    2.7297   -1.1291 H   0  0  0  0  0  0
    5.2784    2.8293    0.7643 H   0  0  0  0  0  0
    4.2425    3.9916    1.6002 H   0  0  0  0  0  0
    2.4724    1.1329    0.0297 H   0  0  0  0  0  0
   -1.2931   -3.1034   -1.3650 H   0  0  0  0  0  0
    0.5226   -0.8882   -4.3309 H   0  0  0  0  0  0
   -1.1936   -1.1927   -4.2806 H   0  0  0  0  0  0
   -0.7170    1.1502   -3.6633 H   0  0  0  0  0  0
    0.3768    0.6378   -2.3986 H   0  0  0  0  0  0
   -2.5709    0.8414   -2.3835 H   0  0  0  0  0  0
   -1.4452    0.8763   -1.0461 H   0  0  0  0  0  0
   -2.6851   -1.4739   -2.5070 H   0  0  0  0  0  0
   -1.9353   -0.2216    1.0330 H   0  0  0  0  0  0
   -3.6197   -0.3729    2.8022 H   0  0  0  0  0  0
   -5.8472   -1.3538    2.3441 H   0  0  0  0  0  0
   -6.3474   -2.2906    0.0984 H   0  0  0  0  0  0
   -4.6612   -2.2017   -1.6878 H   0  0  0  0  0  0
    2.0314   -0.9746    3.7609 H   0  0  0  0  0  0
    3.5368    0.6591    4.8511 H   0  0  0  0  0  0
   -0.0746   -2.1297   -2.7526 N   0  3  0  0  0  0
    0.9169   -2.1297   -2.4856 H   0  0  0  0  0  0
   -0.2917   -2.9940   -3.2625 H   0  0  0  0  0  0
  1  2  1  0  0  0
  1 26  1  0  0  0
  1 27  1  0  0  0
  1 28  1  0  0  0
  2  3  1  0  0  0
  2 29  1  0  0  0
  2 30  1  0  0  0
  3  4  2  0  0  0
  3 24  1  0  0  0
  4  5  1  0  0  0
  4 31  1  0  0  0
  5  6  1  0  0  0
  5 22  2  0  0  0
  6  7  2  0  0  0
  6 21  1  0  0  0
  7  8  1  0  0  0
  8  9  1  0  0  0
  9 10  1  0  0  0
  9 21  2  0  0  0
 10 14  1  0  0  0
 10 32  1  0  0  0
 10 47  1  0  0  0
 11 12  1  0  0  0
 11 33  1  0  0  0
 11 34  1  0  0  0
 11 47  1  0  0  0
 12 13  1  0  0  0
 12 35  1  0  0  0
 12 36  1  0  0  0
 13 14  1  0  0  0
 13 37  1  0  0  0
 13 38  1  0  0  0
 14 15  1  0  0  0
 14 39  1  0  0  0
 15 16  2  0  0  0
 15 20  1  0  0  0
 16 17  1  0  0  0
 16 40  1  0  0  0
 17 18  2  0  0  0
 17 41  1  0  0  0
 18 19  1  0  0  0
 18 42  1  0  0  0
 19 20  2  0  0  0
 19 43  1  0  0  0
 20 44  1  0  0  0
 22 23  1  0  0  0
 22 45  1  0  0  0
 23 24  2  0  0  0
 23 46  1  0  0  0
 24 25  1  0  0  0
 47 48  1  0  0  0
 47 49  1  0  0  0
M  CHG  1  47   1
M  END
> <energy>
95.9698

> <i_ionizer_Ion_state_n>
1

> <i_ionizer_Tot_Q>
1

> <s_ionizer_Ion_centers>
47

> <s_ionizer_Ion_types>
N5

> <s_ionizer_Ion_ctrs_in>
11

> <r_ionizer_Ionization_penalty>
0.000148807

> <r_ionizer_Ionization_penalty_charging>
0.000148807

> <r_ionizer_Ionization_penalty_neutral>
0

$$$$
ZINC001211869847
                    3D
 Schrodinger Suite 2019-4.
 49 52  0  0  1  0            999 V2000
    4.0731   -1.3662    3.4676 C   0  0  0  0  0  0
    4.2886   -0.0370    2.7622 C   0  0  0  0  0  0
    4.1697   -0.1611    1.2664 C   0  0  0  0  0  0
    2.9123   -0.3127    0.6580 C   0  0  0  0  0  0
    2.7841   -0.4103   -0.7388 C   0  0  0  0  0  0
    1.4615   -0.5466   -1.3447 C   0  0  0  0  0  0
    1.2333   -0.5117   -2.6689 N   0  0  0  0  0  0
   -0.1493   -0.6384   -2.7723 O   0  0  0  0  0  0
   -0.6269   -0.7475   -1.4993 C   0  0  0  0  0  0
   -2.1174   -0.9109   -1.3548 C   0  0  2  0  0  0
   -2.9024   -2.6846    0.1512 C   0  0  0  0  0  0
   -4.1516   -1.9006    0.5531 C   0  0  0  0  0  0
   -4.0877   -0.4165    0.1663 C   0  0  0  0  0  0
   -2.6552   -0.0011   -0.2071 C   0  0  2  0  0  0
   -2.5442    1.4819   -0.5346 C   0  0  0  0  0  0
   -3.2901    2.0766   -1.5614 C   0  0  0  0  0  0
   -3.1203    3.4284   -1.8709 C   0  0  0  0  0  0
   -2.2056    4.2028   -1.1605 C   0  0  0  0  0  0
   -1.4642    3.6286   -0.1329 C   0  0  0  0  0  0
   -1.6343    2.2789    0.1795 C   0  0  0  0  0  0
    0.3216   -0.7255   -0.5873 N   0  0  0  0  0  0
    3.9438   -0.3619   -1.5268 C   0  0  0  0  0  0
    5.2010   -0.2266   -0.9316 C   0  0  0  0  0  0
    5.3037   -0.1291    0.4522 C   0  0  0  0  0  0
    6.5209    0.0068    0.9990 F   0  0  0  0  0  0
    4.2372   -1.2518    4.5431 H   0  0  0  0  0  0
    4.7639   -2.1313    3.0988 H   0  0  0  0  0  0
    3.0519   -1.7331    3.3192 H   0  0  0  0  0  0
    5.2717    0.3640    3.0351 H   0  0  0  0  0  0
    3.5547    0.6968    3.1174 H   0  0  0  0  0  0
    2.0199   -0.3457    1.2815 H   0  0  0  0  0  0
   -2.5733   -0.5918   -2.3017 H   0  0  0  0  0  0
   -2.0821   -2.5063    0.8593 H   0  0  0  0  0  0
   -3.1259   -3.7558    0.2072 H   0  0  0  0  0  0
   -5.0412   -2.3506    0.0936 H   0  0  0  0  0  0
   -4.2886   -1.9913    1.6376 H   0  0  0  0  0  0
   -4.4640    0.1942    0.9968 H   0  0  0  0  0  0
   -4.7707   -0.2433   -0.6749 H   0  0  0  0  0  0
   -2.0450   -0.1769    0.6889 H   0  0  0  0  0  0
   -4.0052    1.4967   -2.1410 H   0  0  0  0  0  0
   -3.6954    3.8778   -2.6761 H   0  0  0  0  0  0
   -2.0683    5.2524   -1.4090 H   0  0  0  0  0  0
   -0.7455    4.2262    0.4215 H   0  0  0  0  0  0
   -1.0362    1.8481    0.9810 H   0  0  0  0  0  0
    3.8800   -0.4250   -2.6111 H   0  0  0  0  0  0
    6.1005   -0.1905   -1.5387 H   0  0  0  0  0  0
   -2.4927   -2.3599   -1.2233 N   0  3  0  0  0  0
   -3.2716   -2.5628   -1.8608 H   0  0  0  0  0  0
   -1.6836   -2.9392   -1.4764 H   0  0  0  0  0  0
  1  2  1  0  0  0
  1 26  1  0  0  0
  1 27  1  0  0  0
  1 28  1  0  0  0
  2  3  1  0  0  0
  2 29  1  0  0  0
  2 30  1  0  0  0
  3  4  2  0  0  0
  3 24  1  0  0  0
  4  5  1  0  0  0
  4 31  1  0  0  0
  5  6  1  0  0  0
  5 22  2  0  0  0
  6  7  2  0  0  0
  6 21  1  0  0  0
  7  8  1  0  0  0
  8  9  1  0  0  0
  9 10  1  0  0  0
  9 21  2  0  0  0
 10 14  1  0  0  0
 10 32  1  0  0  0
 10 47  1  0  0  0
 11 12  1  0  0  0
 11 33  1  0  0  0
 11 34  1  0  0  0
 11 47  1  0  0  0
 12 13  1  0  0  0
 12 35  1  0  0  0
 12 36  1  0  0  0
 13 14  1  0  0  0
 13 37  1  0  0  0
 13 38  1  0  0  0
 14 15  1  0  0  0
 14 39  1  0  0  0
 15 16  2  0  0  0
 15 20  1  0  0  0
 16 17  1  0  0  0
 16 40  1  0  0  0
 17 18  2  0  0  0
 17 41  1  0  0  0
 18 19  1  0  0  0
 18 42  1  0  0  0
 19 20  2  0  0  0
 19 43  1  0  0  0
 20 44  1  0  0  0
 22 23  1  0  0  0
 22 45  1  0  0  0
 23 24  2  0  0  0
 23 46  1  0  0  0
 24 25  1  0  0  0
 47 48  1  0  0  0
 47 49  1  0  0  0
M  CHG  1  47   1
M  END
> <energy>
93.1004

> <i_ionizer_Ion_state_n>
1

> <i_ionizer_Tot_Q>
1

> <s_ionizer_Ion_centers>
47

> <s_ionizer_Ion_types>
N5

> <s_ionizer_Ion_ctrs_in>
11

> <r_ionizer_Ionization_penalty>
0.000148807

> <r_ionizer_Ionization_penalty_charging>
0.000148807

> <r_ionizer_Ionization_penalty_neutral>
0

$$$$
ZINC001211869848
                    3D
 Schrodinger Suite 2019-4.
 49 52  0  0  1  0            999 V2000
    5.8367    1.3704   -2.0544 C   0  0  0  0  0  0
    5.2463    1.7956   -0.7204 C   0  0  0  0  0  0
    4.5629    0.6619   -0.0002 C   0  0  0  0  0  0
    3.3380    0.1556   -0.4679 C   0  0  0  0  0  0
    2.6426   -0.8344    0.2497 C   0  0  0  0  0  0
    1.3247   -1.2669   -0.1907 C   0  0  0  0  0  0
    1.0141   -1.4997   -1.4751 N   0  0  0  0  0  0
   -0.3586   -1.7278   -1.4462 O   0  0  0  0  0  0
   -0.7499   -1.5833   -0.1454 C   0  0  0  0  0  0
   -2.2311   -1.5821    0.1347 C   0  0  1  0  0  0
   -4.2658   -2.9556    0.1540 C   0  0  0  0  0  0
   -4.9704   -1.6032    0.2932 C   0  0  0  0  0  0
   -4.4550   -0.6139   -0.7466 C   0  0  0  0  0  0
   -2.9248   -0.4141   -0.6434 C   0  0  1  0  0  0
   -2.5370    0.9482   -0.0692 C   0  0  0  0  0  0
   -3.0902    1.4448    1.1192 C   0  0  0  0  0  0
   -2.6737    2.6744    1.6395 C   0  0  0  0  0  0
   -1.7018    3.4230    0.9815 C   0  0  0  0  0  0
   -1.1430    2.9455   -0.1985 C   0  0  0  0  0  0
   -1.5602    1.7196   -0.7225 C   0  0  0  0  0  0
    0.2606   -1.3774    0.6774 N   0  0  0  0  0  0
    3.2023   -1.3498    1.4242 C   0  0  0  0  0  0
    4.4476   -0.8949    1.8658 C   0  0  0  0  0  0
    5.1094    0.1058    1.1594 C   0  0  0  0  0  0
    6.2890    0.5459    1.6225 F   0  0  0  0  0  0
    5.0529    1.0756   -2.7610 H   0  0  0  0  0  0
    6.5211    0.5246   -1.9352 H   0  0  0  0  0  0
    6.3950    2.2013   -2.4966 H   0  0  0  0  0  0
    6.0357    2.2270   -0.0928 H   0  0  0  0  0  0
    4.5211    2.6010   -0.8860 H   0  0  0  0  0  0
    2.9052    0.5676   -1.3775 H   0  0  0  0  0  0
   -2.3416   -1.4367    1.2165 H   0  0  0  0  0  0
   -4.7716   -3.5602   -0.6101 H   0  0  0  0  0  0
   -4.3762   -3.5025    1.0971 H   0  0  0  0  0  0
   -4.8155   -1.2041    1.3013 H   0  0  0  0  0  0
   -6.0521   -1.7357    0.1766 H   0  0  0  0  0  0
   -4.6841   -1.0254   -1.7385 H   0  0  0  0  0  0
   -5.0031    0.3328   -0.6879 H   0  0  0  0  0  0
   -2.5705   -0.4238   -1.6829 H   0  0  0  0  0  0
   -3.8493    0.8873    1.6628 H   0  0  0  0  0  0
   -3.1041    3.0467    2.5652 H   0  0  0  0  0  0
   -1.3762    4.3760    1.3888 H   0  0  0  0  0  0
   -0.3771    3.5184   -0.7124 H   0  0  0  0  0  0
   -1.1024    1.3650   -1.6456 H   0  0  0  0  0  0
    2.6719   -2.1023    2.0012 H   0  0  0  0  0  0
    4.8971   -1.3008    2.7666 H   0  0  0  0  0  0
   -2.8377   -2.8960   -0.2250 N   0  3  0  0  0  0
   -2.7556   -3.0350   -1.2390 H   0  0  0  0  0  0
   -2.3311   -3.6427    0.2649 H   0  0  0  0  0  0
  1  2  1  0  0  0
  1 26  1  0  0  0
  1 27  1  0  0  0
  1 28  1  0  0  0
  2  3  1  0  0  0
  2 29  1  0  0  0
  2 30  1  0  0  0
  3  4  2  0  0  0
  3 24  1  0  0  0
  4  5  1  0  0  0
  4 31  1  0  0  0
  5  6  1  0  0  0
  5 22  2  0  0  0
  6  7  2  0  0  0
  6 21  1  0  0  0
  7  8  1  0  0  0
  8  9  1  0  0  0
  9 10  1  0  0  0
  9 21  2  0  0  0
 10 14  1  0  0  0
 10 32  1  0  0  0
 10 47  1  0  0  0
 11 12  1  0  0  0
 11 33  1  0  0  0
 11 34  1  0  0  0
 11 47  1  0  0  0
 12 13  1  0  0  0
 12 35  1  0  0  0
 12 36  1  0  0  0
 13 14  1  0  0  0
 13 37  1  0  0  0
 13 38  1  0  0  0
 14 15  1  0  0  0
 14 39  1  0  0  0
 15 16  2  0  0  0
 15 20  1  0  0  0
 16 17  1  0  0  0
 16 40  1  0  0  0
 17 18  2  0  0  0
 17 41  1  0  0  0
 18 19  1  0  0  0
 18 42  1  0  0  0
 19 20  2  0  0  0
 19 43  1  0  0  0
 20 44  1  0  0  0
 22 23  1  0  0  0
 22 45  1  0  0  0
 23 24  2  0  0  0
 23 46  1  0  0  0
 24 25  1  0  0  0
 47 48  1  0  0  0
 47 49  1  0  0  0
M  CHG  1  47   1
M  END
> <energy>
97.7377

> <i_ionizer_Ion_state_n>
1

> <i_ionizer_Tot_Q>
1

> <s_ionizer_Ion_centers>
47

> <s_ionizer_Ion_types>
N5

> <s_ionizer_Ion_ctrs_in>
11

> <r_ionizer_Ionization_penalty>
0.000148807

> <r_ionizer_Ionization_penalty_charging>
0.000148807

> <r_ionizer_Ionization_penalty_neutral>
0

$$$$
ZINC001211869857
                    3D
 Schrodinger Suite 2019-4.
 44 46  0  0  1  0            999 V2000
    0.2562   -2.8679   -3.8040 C   0  0  0  0  0  0
    1.1645   -2.4336   -2.6651 C   0  0  0  0  0  0
    1.6686   -1.0063   -2.8671 C   0  0  0  0  0  0
    2.5959   -0.5727   -1.7380 C   0  0  0  0  0  0
    2.9971    0.7973   -1.9406 O   0  0  0  0  0  0
    2.4929    1.8177   -1.1971 C   0  0  0  0  0  0
    3.1330    2.8441   -1.0095 O   0  0  0  0  0  0
    1.2294    1.6298   -0.7195 N   0  0  0  0  0  0
    0.5945    2.5769    0.1808 C   0  0  2  0  0  0
    0.1393    1.7867    1.3689 C   0  0  0  0  0  0
   -0.6477    0.7301    1.4255 N   0  0  0  0  0  0
   -0.5816    0.3949    2.7590 C   0  0  0  0  0  0
   -1.2859   -0.7507    3.2881 C   0  0  0  0  0  0
   -2.6785   -0.8417    3.1465 C   0  0  0  0  0  0
   -3.3643   -1.9561    3.6340 C   0  0  0  0  0  0
   -2.6602   -2.9956    4.2422 C   0  0  0  0  0  0
   -1.2743   -2.9082    4.3804 C   0  0  0  0  0  0
   -0.4192   -4.2045    5.1272 Cl  0  0  0  0  0  0
   -0.5906   -1.7859    3.9131 C   0  0  0  0  0  0
    0.7448   -1.7217    4.0366 F   0  0  0  0  0  0
    0.1684    1.2192    3.5027 N   0  0  0  0  0  0
    0.6548    2.1425    2.5790 O   0  0  0  0  0  0
   -0.5174    3.3446   -0.5011 C   0  0  0  0  0  0
   -0.3402    3.9254   -1.8871 C   0  0  0  0  0  0
   -1.3335    2.8165   -1.6606 C   0  0  0  0  0  0
   -0.0794   -3.8980   -3.6522 H   0  0  0  0  0  0
    0.7799   -2.8221   -4.7646 H   0  0  0  0  0  0
   -0.6296   -2.2287   -3.8658 H   0  0  0  0  0  0
    0.6146   -2.5023   -1.7187 H   0  0  0  0  0  0
    2.0136   -3.1238   -2.5984 H   0  0  0  0  0  0
    2.2068   -0.9274   -3.8205 H   0  0  0  0  0  0
    0.8230   -0.3132   -2.9439 H   0  0  0  0  0  0
    2.1453   -0.7157   -0.7496 H   0  0  0  0  0  0
    3.5115   -1.1742   -1.7551 H   0  0  0  0  0  0
    0.6962    0.8177   -0.9790 H   0  0  0  0  0  0
    1.3358    3.3097    0.5180 H   0  0  0  0  0  0
   -3.2327   -0.0403    2.6602 H   0  0  0  0  0  0
   -4.4456   -2.0148    3.5392 H   0  0  0  0  0  0
   -3.1951   -3.8693    4.6062 H   0  0  0  0  0  0
   -1.0321    3.9798    0.2173 H   0  0  0  0  0  0
    0.5626    3.7017   -2.4468 H   0  0  0  0  0  0
   -0.7227    4.9241   -2.0685 H   0  0  0  0  0  0
   -1.1102    1.8446   -2.0831 H   0  0  0  0  0  0
   -2.3878    3.0716   -1.6888 H   0  0  0  0  0  0
  1  2  1  0  0  0
  1 26  1  0  0  0
  1 27  1  0  0  0
  1 28  1  0  0  0
  2  3  1  0  0  0
  2 29  1  0  0  0
  2 30  1  0  0  0
  3  4  1  0  0  0
  3 31  1  0  0  0
  3 32  1  0  0  0
  4  5  1  0  0  0
  4 33  1  0  0  0
  4 34  1  0  0  0
  5  6  1  0  0  0
  6  7  2  0  0  0
  6  8  1  0  0  0
  8  9  1  0  0  0
  8 35  1  0  0  0
  9 10  1  0  0  0
  9 23  1  0  0  0
  9 36  1  0  0  0
 10 11  2  0  0  0
 10 22  1  0  0  0
 11 12  1  0  0  0
 12 13  1  0  0  0
 12 21  2  0  0  0
 13 14  2  0  0  0
 13 19  1  0  0  0
 14 15  1  0  0  0
 14 37  1  0  0  0
 15 16  2  0  0  0
 15 38  1  0  0  0
 16 17  1  0  0  0
 16 39  1  0  0  0
 17 18  1  0  0  0
 17 19  2  0  0  0
 19 20  1  0  0  0
 21 22  1  0  0  0
 23 24  1  0  0  0
 23 25  1  0  0  0
 23 40  1  0  0  0
 24 25  1  0  0  0
 24 41  1  0  0  0
 24 42  1  0  0  0
 25 43  1  0  0  0
 25 44  1  0  0  0
M  END
> <energy>
9.85559

> <i_ionizer_Ion_state_n>
0

> <i_ionizer_Tot_Q>
0

> <s_ionizer_Ion_centers>


> <s_ionizer_Ion_types>


> <s_ionizer_Ion_ctrs_in>


> <r_ionizer_Ionization_penalty>
0

> <r_ionizer_Ionization_penalty_charging>
0

> <r_ionizer_Ionization_penalty_neutral>
0

$$$$
ZINC001211869858
                    3D
 Schrodinger Suite 2019-4.
 44 46  0  0  1  0            999 V2000
   -0.4735   -2.0204    1.8382 C   0  0  0  0  0  0
    0.0120   -1.7098    3.2437 C   0  0  0  0  0  0
   -0.7485   -0.5659    3.9196 C   0  0  0  0  0  0
   -0.2010    0.8303    3.6158 C   0  0  0  0  0  0
   -0.3874    1.2343    2.2514 O   0  0  0  0  0  0
   -1.5721    1.8347    1.9772 C   0  0  0  0  0  0
   -2.5198    1.9130    2.7422 O   0  0  0  0  0  0
   -1.6155    2.4080    0.7441 N   0  0  0  0  0  0
   -0.5164    2.4784   -0.2058 C   0  0  1  0  0  0
   -0.4065    1.1828   -0.9531 C   0  0  0  0  0  0
    0.6274    0.3838   -1.1080 N   0  0  0  0  0  0
    0.0775   -0.6962   -1.7704 C   0  0  0  0  0  0
    0.8576   -1.8867   -2.0643 C   0  0  0  0  0  0
    2.2528   -1.7877   -2.2162 C   0  0  0  0  0  0
    3.0270   -2.9242   -2.4651 C   0  0  0  0  0  0
    2.4173   -4.1745   -2.5635 C   0  0  0  0  0  0
    1.0342   -4.2834   -2.4088 C   0  0  0  0  0  0
    0.3013   -5.8413   -2.4963 Cl  0  0  0  0  0  0
    0.2596   -3.1498   -2.1637 C   0  0  0  0  0  0
   -1.0655   -3.2914   -1.9848 F   0  0  0  0  0  0
   -1.2165   -0.5308   -2.0897 N   0  0  0  0  0  0
   -1.5383    0.7110   -1.5499 O   0  0  0  0  0  0
   -0.6810    3.7562   -1.0090 C   0  0  0  0  0  0
    0.3687    4.1748   -2.0116 C   0  0  0  0  0  0
   -1.0083    3.7986   -2.4858 C   0  0  0  0  0  0
    0.1093   -2.8436    1.4194 H   0  0  0  0  0  0
   -0.3687   -1.1590    1.1796 H   0  0  0  0  0  0
   -1.5261   -2.3230    1.8414 H   0  0  0  0  0  0
   -0.1141   -2.6201    3.8431 H   0  0  0  0  0  0
    1.0876   -1.4938    3.2293 H   0  0  0  0  0  0
   -0.6696   -0.7109    5.0042 H   0  0  0  0  0  0
   -1.8138   -0.6270    3.6704 H   0  0  0  0  0  0
   -0.6575    1.5686    4.2859 H   0  0  0  0  0  0
    0.8770    0.8687    3.8209 H   0  0  0  0  0  0
   -2.4912    2.8618    0.5259 H   0  0  0  0  0  0
    0.4074    2.5852    0.3784 H   0  0  0  0  0  0
    2.7443   -0.8174   -2.1357 H   0  0  0  0  0  0
    4.1058   -2.8338   -2.5754 H   0  0  0  0  0  0
    3.0211   -5.0593   -2.7420 H   0  0  0  0  0  0
   -1.0544    4.5659   -0.3839 H   0  0  0  0  0  0
    0.6459    5.2245   -2.0398 H   0  0  0  0  0  0
    1.1894    3.5003   -2.2287 H   0  0  0  0  0  0
   -1.1035    2.8812   -3.0577 H   0  0  0  0  0  0
   -1.6740    4.5881   -2.8212 H   0  0  0  0  0  0
  1  2  1  0  0  0
  1 26  1  0  0  0
  1 27  1  0  0  0
  1 28  1  0  0  0
  2  3  1  0  0  0
  2 29  1  0  0  0
  2 30  1  0  0  0
  3  4  1  0  0  0
  3 31  1  0  0  0
  3 32  1  0  0  0
  4  5  1  0  0  0
  4 33  1  0  0  0
  4 34  1  0  0  0
  5  6  1  0  0  0
  6  7  2  0  0  0
  6  8  1  0  0  0
  8  9  1  0  0  0
  8 35  1  0  0  0
  9 10  1  0  0  0
  9 23  1  0  0  0
  9 36  1  0  0  0
 10 11  2  0  0  0
 10 22  1  0  0  0
 11 12  1  0  0  0
 12 13  1  0  0  0
 12 21  2  0  0  0
 13 14  2  0  0  0
 13 19  1  0  0  0
 14 15  1  0  0  0
 14 37  1  0  0  0
 15 16  2  0  0  0
 15 38  1  0  0  0
 16 17  1  0  0  0
 16 39  1  0  0  0
 17 18  1  0  0  0
 17 19  2  0  0  0
 19 20  1  0  0  0
 21 22  1  0  0  0
 23 24  1  0  0  0
 23 25  1  0  0  0
 23 40  1  0  0  0
 24 25  1  0  0  0
 24 41  1  0  0  0
 24 42  1  0  0  0
 25 43  1  0  0  0
 25 44  1  0  0  0
M  END
> <energy>
5.57538

> <i_ionizer_Ion_state_n>
0

> <i_ionizer_Tot_Q>
0

> <s_ionizer_Ion_centers>


> <s_ionizer_Ion_types>


> <s_ionizer_Ion_ctrs_in>


> <r_ionizer_Ionization_penalty>
0

> <r_ionizer_Ionization_penalty_charging>
0

> <r_ionizer_Ionization_penalty_neutral>
0

$$$$
ZINC001211869883
                    3D
 Schrodinger Suite 2019-4.
 44 46  0  0  1  0            999 V2000
    0.0554   -3.1406    1.9359 C   0  0  0  0  0  0
    1.3534   -3.7267    1.4048 C   0  0  0  0  0  0
    1.2216   -4.3485    0.0112 C   0  0  0  0  0  0
    0.8457   -3.3721   -1.1053 C   0  0  0  0  0  0
    1.7799   -2.2828   -1.1226 O   0  0  0  0  0  0
    1.2398   -1.0590   -1.3292 C   0  0  0  0  0  0
    0.0784   -0.8485   -1.6264 O   0  0  0  0  0  0
    2.1940   -0.1109   -1.0976 N   0  0  0  0  0  0
    1.9000    1.0867   -0.3115 C   0  0  2  0  0  0
    0.5497    1.6795   -0.5747 C   0  0  0  0  0  0
   -0.5607    1.4950    0.1053 N   0  0  0  0  0  0
   -1.4875    2.1675   -0.6505 C   0  0  0  0  0  0
   -2.9142    2.0846   -0.3547 C   0  0  0  0  0  0
   -3.4192    0.9786    0.3553 C   0  0  0  0  0  0
   -4.7964    0.8462    0.5817 C   0  0  0  0  0  0
   -5.6741    1.8230    0.1147 C   0  0  0  0  0  0
   -7.3645    1.6395    0.3653 Cl  0  0  0  0  0  0
   -5.1748    2.9332   -0.5614 C   0  0  0  0  0  0
   -6.0003    3.8899   -1.0117 F   0  0  0  0  0  0
   -3.8043    3.0701   -0.7977 C   0  0  0  0  0  0
   -0.9614    2.8525   -1.6827 N   0  0  0  0  0  0
    0.3943    2.5019   -1.6506 O   0  0  0  0  0  0
    3.0812    2.0303   -0.4399 C   0  0  0  0  0  0
    3.4767    2.9227    0.7108 C   0  0  0  0  0  0
    4.3657    1.7749    0.3295 C   0  0  0  0  0  0
    0.1695   -2.8588    2.9889 H   0  0  0  0  0  0
   -0.7618   -3.8667    1.8741 H   0  0  0  0  0  0
   -0.2368   -2.2422    1.3833 H   0  0  0  0  0  0
    1.6813   -4.5072    2.1015 H   0  0  0  0  0  0
    2.1314   -2.9584    1.4115 H   0  0  0  0  0  0
    0.4909   -5.1666    0.0477 H   0  0  0  0  0  0
    2.1911   -4.7995   -0.2351 H   0  0  0  0  0  0
   -0.1920   -3.0429   -0.9726 H   0  0  0  0  0  0
    0.9123   -3.8882   -2.0704 H   0  0  0  0  0  0
    3.0750   -0.5435   -0.8531 H   0  0  0  0  0  0
    1.8658    0.7274    0.7257 H   0  0  0  0  0  0
   -2.7477    0.1934    0.7024 H   0  0  0  0  0  0
   -5.1749   -0.0300    1.1059 H   0  0  0  0  0  0
   -3.4490    3.9410   -1.3423 H   0  0  0  0  0  0
    3.1805    2.4342   -1.4454 H   0  0  0  0  0  0
    3.8283    3.9232    0.4872 H   0  0  0  0  0  0
    2.9227    2.8563    1.6388 H   0  0  0  0  0  0
    4.4246    0.9289    1.0062 H   0  0  0  0  0  0
    5.3104    2.0126   -0.1525 H   0  0  0  0  0  0
  1  2  1  0  0  0
  1 26  1  0  0  0
  1 27  1  0  0  0
  1 28  1  0  0  0
  2  3  1  0  0  0
  2 29  1  0  0  0
  2 30  1  0  0  0
  3  4  1  0  0  0
  3 31  1  0  0  0
  3 32  1  0  0  0
  4  5  1  0  0  0
  4 33  1  0  0  0
  4 34  1  0  0  0
  5  6  1  0  0  0
  6  7  2  0  0  0
  6  8  1  0  0  0
  8  9  1  0  0  0
  8 35  1  0  0  0
  9 10  1  0  0  0
  9 23  1  0  0  0
  9 36  1  0  0  0
 10 11  2  0  0  0
 10 22  1  0  0  0
 11 12  1  0  0  0
 12 13  1  0  0  0
 12 21  2  0  0  0
 13 14  2  0  0  0
 13 20  1  0  0  0
 14 15  1  0  0  0
 14 37  1  0  0  0
 15 16  2  0  0  0
 15 38  1  0  0  0
 16 17  1  0  0  0
 16 18  1  0  0  0
 18 19  1  0  0  0
 18 20  2  0  0  0
 20 39  1  0  0  0
 21 22  1  0  0  0
 23 24  1  0  0  0
 23 25  1  0  0  0
 23 40  1  0  0  0
 24 25  1  0  0  0
 24 41  1  0  0  0
 24 42  1  0  0  0
 25 43  1  0  0  0
 25 44  1  0  0  0
M  END
> <energy>
6.08253

> <i_ionizer_Ion_state_n>
0

> <i_ionizer_Tot_Q>
0

> <s_ionizer_Ion_centers>


> <s_ionizer_Ion_types>


> <s_ionizer_Ion_ctrs_in>


> <r_ionizer_Ionization_penalty>
0

> <r_ionizer_Ionization_penalty_charging>
0

> <r_ionizer_Ionization_penalty_neutral>
0

$$$$
ZINC001211869884
                    3D
 Schrodinger Suite 2019-4.
 44 46  0  0  1  0            999 V2000
   -4.3204   -0.3647   -2.5090 C   0  0  0  0  0  0
   -4.3867    0.9139   -1.6848 C   0  0  0  0  0  0
   -3.9808    0.7169   -0.2240 C   0  0  0  0  0  0
   -2.5326    0.2710   -0.0296 C   0  0  0  0  0  0
   -1.7582    1.3202    0.5811 O   0  0  0  0  0  0
   -0.7344    1.8262   -0.1485 C   0  0  0  0  0  0
   -0.5695    1.6795   -1.3444 O   0  0  0  0  0  0
    0.1559    2.3973    0.7217 N   0  0  0  0  0  0
    1.5930    2.2371    0.5154 C   0  0  1  0  0  0
    1.8694    0.7771    0.3096 C   0  0  0  0  0  0
    1.7689   -0.2076    1.1810 N   0  0  0  0  0  0
    1.8318   -1.3158    0.3686 C   0  0  0  0  0  0
    1.6648   -2.6593    0.9025 C   0  0  0  0  0  0
    1.1821   -3.6988    0.0919 C   0  0  0  0  0  0
    1.0158   -4.9867    0.6095 C   0  0  0  0  0  0
    1.3443   -5.2435    1.9398 C   0  0  0  0  0  0
    1.1223   -6.8285    2.5732 Cl  0  0  0  0  0  0
    1.8334   -4.2157    2.7433 C   0  0  0  0  0  0
    2.1889   -4.4496    4.0149 F   0  0  0  0  0  0
    1.9775   -2.9259    2.2421 C   0  0  0  0  0  0
    2.0347   -1.0451   -0.9297 N   0  0  0  0  0  0
    2.0660    0.3481   -0.9707 O   0  0  0  0  0  0
    2.1358    3.2076   -0.5018 C   0  0  0  0  0  0
    3.6312    3.2858   -0.7300 C   0  0  0  0  0  0
    2.9151    4.4357   -0.0811 C   0  0  0  0  0  0
   -3.2890   -0.6633   -2.7114 H   0  0  0  0  0  0
   -4.8255   -1.1952   -2.0046 H   0  0  0  0  0  0
   -4.8093   -0.2127   -3.4750 H   0  0  0  0  0  0
   -3.7664    1.6879   -2.1502 H   0  0  0  0  0  0
   -5.4198    1.2794   -1.7042 H   0  0  0  0  0  0
   -4.1633    1.6497    0.3226 H   0  0  0  0  0  0
   -4.6492   -0.0363    0.2108 H   0  0  0  0  0  0
   -2.0611   -0.1104   -0.9391 H   0  0  0  0  0  0
   -2.5137   -0.5524    0.6911 H   0  0  0  0  0  0
   -0.1534    2.2469    1.6700 H   0  0  0  0  0  0
    2.0372    2.5055    1.4817 H   0  0  0  0  0  0
    0.9215   -3.5082   -0.9490 H   0  0  0  0  0  0
    0.6347   -5.7782   -0.0344 H   0  0  0  0  0  0
    2.3476   -2.1397    2.8984 H   0  0  0  0  0  0
    1.5063    3.2991   -1.3810 H   0  0  0  0  0  0
    4.2944    2.6815   -0.1190 H   0  0  0  0  0  0
    3.9731    3.4090   -1.7542 H   0  0  0  0  0  0
    3.0798    4.6197    0.9739 H   0  0  0  0  0  0
    2.8080    5.3426   -0.6674 H   0  0  0  0  0  0
  1  2  1  0  0  0
  1 26  1  0  0  0
  1 27  1  0  0  0
  1 28  1  0  0  0
  2  3  1  0  0  0
  2 29  1  0  0  0
  2 30  1  0  0  0
  3  4  1  0  0  0
  3 31  1  0  0  0
  3 32  1  0  0  0
  4  5  1  0  0  0
  4 33  1  0  0  0
  4 34  1  0  0  0
  5  6  1  0  0  0
  6  7  2  0  0  0
  6  8  1  0  0  0
  8  9  1  0  0  0
  8 35  1  0  0  0
  9 10  1  0  0  0
  9 23  1  0  0  0
  9 36  1  0  0  0
 10 11  2  0  0  0
 10 22  1  0  0  0
 11 12  1  0  0  0
 12 13  1  0  0  0
 12 21  2  0  0  0
 13 14  2  0  0  0
 13 20  1  0  0  0
 14 15  1  0  0  0
 14 37  1  0  0  0
 15 16  2  0  0  0
 15 38  1  0  0  0
 16 17  1  0  0  0
 16 18  1  0  0  0
 18 19  1  0  0  0
 18 20  2  0  0  0
 20 39  1  0  0  0
 21 22  1  0  0  0
 23 24  1  0  0  0
 23 25  1  0  0  0
 23 40  1  0  0  0
 24 25  1  0  0  0
 24 41  1  0  0  0
 24 42  1  0  0  0
 25 43  1  0  0  0
 25 44  1  0  0  0
M  END
> <energy>
9.90843

> <i_ionizer_Ion_state_n>
0

> <i_ionizer_Tot_Q>
0

> <s_ionizer_Ion_centers>


> <s_ionizer_Ion_types>


> <s_ionizer_Ion_ctrs_in>


> <r_ionizer_Ionization_penalty>
0

> <r_ionizer_Ionization_penalty_charging>
0

> <r_ionizer_Ionization_penalty_neutral>
0

$$$$
ZINC001211869921
                    3D
 Schrodinger Suite 2019-4.
 46 49  0  0  1  0            999 V2000
    4.9865   -4.8948    0.2660 C   0  0  0  0  0  0
    4.3332   -3.5512    0.3661 C   0  0  0  0  0  0
    3.2574   -3.3396    1.2349 C   0  0  0  0  0  0
    2.5645   -2.1256    1.2250 C   0  0  0  0  0  0
    2.9414   -1.1022    0.3437 C   0  0  0  0  0  0
    2.1114    0.0782    0.2643 C   0  0  0  0  0  0
    2.2493    1.1520    1.0510 N   0  0  0  0  0  0
    1.2187    1.9979    0.6243 O   0  0  0  0  0  0
    0.5331    1.3214   -0.3496 C   0  0  0  0  0  0
   -0.6170    2.0196   -1.0363 C   0  0  1  0  0  0
   -1.8732    4.0625   -1.3644 C   0  0  0  0  0  0
   -3.1774    3.3068   -1.6136 C   0  0  0  0  0  0
   -2.9651    1.8327   -1.9758 C   0  0  0  0  0  0
   -1.8730    1.1062   -1.1595 C   0  0  2  0  0  0
   -2.3900    0.5097    0.1579 C   0  0  0  0  0  0
   -3.1470    1.2249    1.0978 C   0  0  0  0  0  0
   -3.5891    0.6238    2.2811 C   0  0  0  0  0  0
   -3.2783   -0.7037    2.5494 C   0  0  0  0  0  0
   -2.5240   -1.4319    1.6378 C   0  0  0  0  0  0
   -2.0825   -0.8297    0.4572 C   0  0  0  0  0  0
    1.0438    0.1366   -0.6044 N   0  0  0  0  0  0
    4.0475   -1.2925   -0.4926 C   0  0  0  0  0  0
    4.5909   -0.0690   -1.5904 Cl  0  0  0  0  0  0
    4.7286   -2.5148   -0.4886 C   0  0  0  0  0  0
    6.0367   -4.8028   -0.0286 H   0  0  0  0  0  0
    4.9566   -5.4285    1.2203 H   0  0  0  0  0  0
    4.4655   -5.4985   -0.4853 H   0  0  0  0  0  0
    2.9243   -4.1297    1.9020 H   0  0  0  0  0  0
    1.7129   -1.9850    1.8856 H   0  0  0  0  0  0
   -0.2397    2.2041   -2.0532 H   0  0  0  0  0  0
   -1.3693    4.2727   -2.3180 H   0  0  0  0  0  0
   -2.1005    5.0387   -0.9170 H   0  0  0  0  0  0
   -3.7313    3.7973   -2.4256 H   0  0  0  0  0  0
   -3.8229    3.3921   -0.7377 H   0  0  0  0  0  0
   -3.9180    1.2927   -1.9188 H   0  0  0  0  0  0
   -2.6620    1.8009   -3.0323 H   0  0  0  0  0  0
   -1.5741    0.2456   -1.7811 H   0  0  0  0  0  0
   -3.4148    2.2646    0.9449 H   0  0  0  0  0  0
   -4.1782    1.1975    2.9911 H   0  0  0  0  0  0
   -3.6174   -1.1660    3.4718 H   0  0  0  0  0  0
   -2.2774   -2.4675    1.8425 H   0  0  0  0  0  0
   -1.4840   -1.4259   -0.2283 H   0  0  0  0  0  0
    5.5629   -2.6666   -1.1737 H   0  0  0  0  0  0
   -0.9569    3.3489   -0.4667 N   0  3  0  0  0  0
   -1.4072    3.2218    0.4472 H   0  0  0  0  0  0
   -0.0976    3.8988   -0.3514 H   0  0  0  0  0  0
  1  2  1  0  0  0
  1 25  1  0  0  0
  1 26  1  0  0  0
  1 27  1  0  0  0
  2  3  2  0  0  0
  2 24  1  0  0  0
  3  4  1  0  0  0
  3 28  1  0  0  0
  4  5  2  0  0  0
  4 29  1  0  0  0
  5  6  1  0  0  0
  5 22  1  0  0  0
  6  7  2  0  0  0
  6 21  1  0  0  0
  7  8  1  0  0  0
  8  9  1  0  0  0
  9 10  1  0  0  0
  9 21  2  0  0  0
 10 14  1  0  0  0
 10 30  1  0  0  0
 10 44  1  0  0  0
 11 12  1  0  0  0
 11 31  1  0  0  0
 11 32  1  0  0  0
 11 44  1  0  0  0
 12 13  1  0  0  0
 12 33  1  0  0  0
 12 34  1  0  0  0
 13 14  1  0  0  0
 13 35  1  0  0  0
 13 36  1  0  0  0
 14 15  1  0  0  0
 14 37  1  0  0  0
 15 16  2  0  0  0
 15 20  1  0  0  0
 16 17  1  0  0  0
 16 38  1  0  0  0
 17 18  2  0  0  0
 17 39  1  0  0  0
 18 19  1  0  0  0
 18 40  1  0  0  0
 19 20  2  0  0  0
 19 41  1  0  0  0
 20 42  1  0  0  0
 22 23  1  0  0  0
 22 24  2  0  0  0
 24 43  1  0  0  0
 44 45  1  0  0  0
 44 46  1  0  0  0
M  CHG  1  44   1
M  END
> <energy>
101.817

> <i_ionizer_Ion_state_n>
1

> <i_ionizer_Tot_Q>
1

> <s_ionizer_Ion_centers>
44

> <s_ionizer_Ion_types>
N5

> <s_ionizer_Ion_ctrs_in>
11

> <r_ionizer_Ionization_penalty>
0.000148807

> <r_ionizer_Ionization_penalty_charging>
0.000148807

> <r_ionizer_Ionization_penalty_neutral>
0

$$$$
ZINC001211869922
                    3D
 Schrodinger Suite 2019-4.
 46 49  0  0  1  0            999 V2000
    4.2104    3.4547    4.2653 C   0  0  0  0  0  0
    3.3630    2.3952    3.6229 C   0  0  0  0  0  0
    2.1572    1.9935    4.2102 C   0  0  0  0  0  0
    1.3537    1.0337    3.5860 C   0  0  0  0  0  0
    1.7475    0.4412    2.3762 C   0  0  0  0  0  0
    0.8155   -0.4461    1.7093 C   0  0  0  0  0  0
    1.0452   -1.7338    1.4061 N   0  0  0  0  0  0
   -0.0809   -2.0958    0.6520 O   0  0  0  0  0  0
   -0.8792   -0.9906    0.6026 C   0  0  0  0  0  0
   -2.1015   -1.0204   -0.2670 C   0  0  1  0  0  0
   -4.3962   -1.7919   -0.4814 C   0  0  0  0  0  0
   -4.1893   -2.1077   -1.9608 C   0  0  0  0  0  0
   -3.0576   -1.2836   -2.5742 C   0  0  0  0  0  0
   -1.7741   -1.4277   -1.7299 C   0  0  1  0  0  0
   -0.6173   -0.6870   -2.3938 C   0  0  0  0  0  0
   -0.3868    0.6830   -2.2093 C   0  0  0  0  0  0
    0.7259    1.2993   -2.7905 C   0  0  0  0  0  0
    1.6103    0.5620   -3.5744 C   0  0  0  0  0  0
    1.3762   -0.7926   -3.7917 C   0  0  0  0  0  0
    0.2676   -1.4117   -3.2114 C   0  0  0  0  0  0
   -0.4126    0.0200    1.3007 N   0  0  0  0  0  0
    2.9733    0.8132    1.8091 C   0  0  0  0  0  0
    3.5202    0.2020    0.2838 Cl  0  0  0  0  0  0
    3.7755    1.7776    2.4363 C   0  0  0  0  0  0
    4.8270    3.0222    5.0574 H   0  0  0  0  0  0
    3.5850    4.2467    4.6922 H   0  0  0  0  0  0
    4.8726    3.9286    3.5309 H   0  0  0  0  0  0
    1.8196    2.4462    5.1391 H   0  0  0  0  0  0
    0.3968    0.7686    4.0336 H   0  0  0  0  0  0
   -2.4962    0.0054   -0.2618 H   0  0  0  0  0  0
   -5.1336   -2.4901   -0.0684 H   0  0  0  0  0  0
   -4.8188   -0.7873   -0.3657 H   0  0  0  0  0  0
   -5.1208   -1.9235   -2.5106 H   0  0  0  0  0  0
   -3.9558   -3.1734   -2.0771 H   0  0  0  0  0  0
   -3.3630   -0.2295   -2.6268 H   0  0  0  0  0  0
   -2.8920   -1.6038   -3.6104 H   0  0  0  0  0  0
   -1.5050   -2.4967   -1.7150 H   0  0  0  0  0  0
   -1.0426    1.2898   -1.5899 H   0  0  0  0  0  0
    0.9090    2.3565   -2.6211 H   0  0  0  0  0  0
    2.4833    1.0390   -4.0095 H   0  0  0  0  0  0
    2.0592   -1.3743   -4.4059 H   0  0  0  0  0  0
    0.1135   -2.4752   -3.3842 H   0  0  0  0  0  0
    4.7142    2.0766    1.9726 H   0  0  0  0  0  0
   -3.1558   -1.9060    0.3003 N   0  3  0  0  0  0
   -2.8292   -2.8791    0.2764 H   0  0  0  0  0  0
   -3.3418   -1.6312    1.2719 H   0  0  0  0  0  0
  1  2  1  0  0  0
  1 25  1  0  0  0
  1 26  1  0  0  0
  1 27  1  0  0  0
  2  3  2  0  0  0
  2 24  1  0  0  0
  3  4  1  0  0  0
  3 28  1  0  0  0
  4  5  2  0  0  0
  4 29  1  0  0  0
  5  6  1  0  0  0
  5 22  1  0  0  0
  6  7  2  0  0  0
  6 21  1  0  0  0
  7  8  1  0  0  0
  8  9  1  0  0  0
  9 10  1  0  0  0
  9 21  2  0  0  0
 10 14  1  0  0  0
 10 30  1  0  0  0
 10 44  1  0  0  0
 11 12  1  0  0  0
 11 31  1  0  0  0
 11 32  1  0  0  0
 11 44  1  0  0  0
 12 13  1  0  0  0
 12 33  1  0  0  0
 12 34  1  0  0  0
 13 14  1  0  0  0
 13 35  1  0  0  0
 13 36  1  0  0  0
 14 15  1  0  0  0
 14 37  1  0  0  0
 15 16  2  0  0  0
 15 20  1  0  0  0
 16 17  1  0  0  0
 16 38  1  0  0  0
 17 18  2  0  0  0
 17 39  1  0  0  0
 18 19  1  0  0  0
 18 40  1  0  0  0
 19 20  2  0  0  0
 19 41  1  0  0  0
 20 42  1  0  0  0
 22 23  1  0  0  0
 22 24  2  0  0  0
 24 43  1  0  0  0
 44 45  1  0  0  0
 44 46  1  0  0  0
M  CHG  1  44   1
M  END
> <energy>
95.2488

> <i_ionizer_Ion_state_n>
1

> <i_ionizer_Tot_Q>
1

> <s_ionizer_Ion_centers>
44

> <s_ionizer_Ion_types>
N5

> <s_ionizer_Ion_ctrs_in>
11

> <r_ionizer_Ionization_penalty>
0.000148807

> <r_ionizer_Ionization_penalty_charging>
0.000148807

> <r_ionizer_Ionization_penalty_neutral>
0

$$$$
ZINC001211869923
                    3D
 Schrodinger Suite 2019-4.
 46 49  0  0  1  0            999 V2000
    6.4372   -1.8493   -0.8561 C   0  0  0  0  0  0
    5.1958   -1.1787   -0.3473 C   0  0  0  0  0  0
    4.5781   -0.1617   -1.0789 C   0  0  0  0  0  0
    3.4126    0.4470   -0.5996 C   0  0  0  0  0  0
    2.8431    0.0642    0.6293 C   0  0  0  0  0  0
    1.5882    0.6899    1.0288 C   0  0  0  0  0  0
    1.2504    0.9980    2.2897 N   0  0  0  0  0  0
   -0.0596    1.4577    2.1803 O   0  0  0  0  0  0
   -0.3774    1.4137    0.8552 C   0  0  0  0  0  0
   -1.7996    1.7432    0.4906 C   0  0  2  0  0  0
   -3.2531    3.4830   -0.4083 C   0  0  0  0  0  0
   -3.8446    2.5299   -1.4436 C   0  0  0  0  0  0
   -3.7901    1.0861   -0.9552 C   0  0  0  0  0  0
   -2.3568    0.7117   -0.5354 C   0  0  2  0  0  0
   -2.2874   -0.7268   -0.0430 C   0  0  0  0  0  0
   -3.0335   -1.1753    1.0561 C   0  0  0  0  0  0
   -2.9107   -2.4920    1.5059 C   0  0  0  0  0  0
   -2.0410   -3.3732    0.8659 C   0  0  0  0  0  0
   -1.2902   -2.9393   -0.2244 C   0  0  0  0  0  0
   -1.4145   -1.6259   -0.6763 C   0  0  0  0  0  0
    0.6249    1.0216    0.0944 N   0  0  0  0  0  0
    3.4814   -0.9415    1.3722 C   0  0  0  0  0  0
    2.8745   -1.5638    2.8708 Cl  0  0  0  0  0  0
    4.6535   -1.5453    0.8891 C   0  0  0  0  0  0
    6.4989   -2.8803   -0.4900 H   0  0  0  0  0  0
    7.3233   -1.3032   -0.5217 H   0  0  0  0  0  0
    6.4363   -1.8952   -1.9502 H   0  0  0  0  0  0
    4.9903    0.1575   -2.0343 H   0  0  0  0  0  0
    2.9409    1.2248   -1.1995 H   0  0  0  0  0  0
   -2.3941    1.7006    1.4134 H   0  0  0  0  0  0
   -3.2525    4.5013   -0.8122 H   0  0  0  0  0  0
   -3.8848    3.5036    0.4899 H   0  0  0  0  0  0
   -4.8837    2.8084   -1.6514 H   0  0  0  0  0  0
   -3.2968    2.6159   -2.3907 H   0  0  0  0  0  0
   -4.1421    0.4148   -1.7472 H   0  0  0  0  0  0
   -4.4869    0.9728   -0.1155 H   0  0  0  0  0  0
   -1.7397    0.7803   -1.4446 H   0  0  0  0  0  0
   -3.7125   -0.5069    1.5804 H   0  0  0  0  0  0
   -3.4905   -2.8283    2.3611 H   0  0  0  0  0  0
   -1.9424   -4.3957    1.2218 H   0  0  0  0  0  0
   -0.6027   -3.6210   -0.7175 H   0  0  0  0  0  0
   -0.8069   -1.3023   -1.5188 H   0  0  0  0  0  0
    5.1327   -2.3281    1.4746 H   0  0  0  0  0  0
   -1.8711    3.1360   -0.0432 N   0  3  0  0  0  0
   -1.5382    3.7898    0.6752 H   0  0  0  0  0  0
   -1.2743    3.2091   -0.8754 H   0  0  0  0  0  0
  1  2  1  0  0  0
  1 25  1  0  0  0
  1 26  1  0  0  0
  1 27  1  0  0  0
  2  3  2  0  0  0
  2 24  1  0  0  0
  3  4  1  0  0  0
  3 28  1  0  0  0
  4  5  2  0  0  0
  4 29  1  0  0  0
  5  6  1  0  0  0
  5 22  1  0  0  0
  6  7  2  0  0  0
  6 21  1  0  0  0
  7  8  1  0  0  0
  8  9  1  0  0  0
  9 10  1  0  0  0
  9 21  2  0  0  0
 10 14  1  0  0  0
 10 30  1  0  0  0
 10 44  1  0  0  0
 11 12  1  0  0  0
 11 31  1  0  0  0
 11 32  1  0  0  0
 11 44  1  0  0  0
 12 13  1  0  0  0
 12 33  1  0  0  0
 12 34  1  0  0  0
 13 14  1  0  0  0
 13 35  1  0  0  0
 13 36  1  0  0  0
 14 15  1  0  0  0
 14 37  1  0  0  0
 15 16  2  0  0  0
 15 20  1  0  0  0
 16 17  1  0  0  0
 16 38  1  0  0  0
 17 18  2  0  0  0
 17 39  1  0  0  0
 18 19  1  0  0  0
 18 40  1  0  0  0
 19 20  2  0  0  0
 19 41  1  0  0  0
 20 42  1  0  0  0
 22 23  1  0  0  0
 22 24  2  0  0  0
 24 43  1  0  0  0
 44 45  1  0  0  0
 44 46  1  0  0  0
M  CHG  1  44   1
M  END
> <energy>
93.2136

> <i_ionizer_Ion_state_n>
1

> <i_ionizer_Tot_Q>
1

> <s_ionizer_Ion_centers>
44

> <s_ionizer_Ion_types>
N5

> <s_ionizer_Ion_ctrs_in>
11

> <r_ionizer_Ionization_penalty>
0.000148807

> <r_ionizer_Ionization_penalty_charging>
0.000148807

> <r_ionizer_Ionization_penalty_neutral>
0

$$$$
ZINC001211869924
                    3D
 Schrodinger Suite 2019-4.
 46 49  0  0  1  0            999 V2000
    6.2686    0.6510    2.2272 C   0  0  0  0  0  0
    5.0291    0.2179    1.5013 C   0  0  0  0  0  0
    4.3987    1.0751    0.5942 C   0  0  0  0  0  0
    3.2264    0.6769   -0.0534 C   0  0  0  0  0  0
    2.6602   -0.5818    0.2047 C   0  0  0  0  0  0
    1.4354   -0.9429   -0.4761 C   0  0  0  0  0  0
    1.3569   -1.1237   -1.8036 N   0  0  0  0  0  0
    0.0029   -1.3838   -2.0140 O   0  0  0  0  0  0
   -0.6011   -1.3111   -0.7908 C   0  0  0  0  0  0
   -2.0928   -1.4851   -0.7738 C   0  0  2  0  0  0
   -3.7372   -2.4458    0.7743 C   0  0  0  0  0  0
   -3.7283   -1.2205    1.6916 C   0  0  0  0  0  0
   -2.9858   -0.0154    1.0978 C   0  0  0  0  0  0
   -2.8345   -0.1522   -0.4271 C   0  0  1  0  0  0
   -2.2737    1.0719   -1.1422 C   0  0  0  0  0  0
   -2.6253    1.3048   -2.4828 C   0  0  0  0  0  0
   -2.0989    2.3933   -3.1825 C   0  0  0  0  0  0
   -1.2128    3.2642   -2.5550 C   0  0  0  0  0  0
   -0.8505    3.0458   -1.2292 C   0  0  0  0  0  0
   -1.3753    1.9576   -0.5280 C   0  0  0  0  0  0
    0.2379   -1.0446    0.1875 N   0  0  0  0  0  0
    3.2827   -1.4368    1.1206 C   0  0  0  0  0  0
    2.6733   -3.0150    1.4822 Cl  0  0  0  0  0  0
    4.4588   -1.0350    1.7665 C   0  0  0  0  0  0
    6.0047    1.0647    3.2056 H   0  0  0  0  0  0
    6.8114    1.4129    1.6577 H   0  0  0  0  0  0
    6.9494   -0.1951    2.3695 H   0  0  0  0  0  0
    4.8127    2.0599    0.3845 H   0  0  0  0  0  0
    2.7464    1.3568   -0.7559 H   0  0  0  0  0  0
   -2.4058   -1.7646   -1.7893 H   0  0  0  0  0  0
   -3.9579   -3.3357    1.3739 H   0  0  0  0  0  0
   -4.5400   -2.3678    0.0317 H   0  0  0  0  0  0
   -4.7663   -0.9394    1.9070 H   0  0  0  0  0  0
   -3.2729   -1.4749    2.6569 H   0  0  0  0  0  0
   -3.5177    0.9072    1.3587 H   0  0  0  0  0  0
   -2.0004    0.0515    1.5757 H   0  0  0  0  0  0
   -3.8650   -0.2514   -0.8028 H   0  0  0  0  0  0
   -3.3108    0.6359   -2.9987 H   0  0  0  0  0  0
   -2.3765    2.5581   -4.2201 H   0  0  0  0  0  0
   -0.8019    4.1106   -3.0994 H   0  0  0  0  0  0
   -0.1510    3.7180   -0.7390 H   0  0  0  0  0  0
   -1.0509    1.8022    0.4985 H   0  0  0  0  0  0
    4.9370   -1.7067    2.4768 H   0  0  0  0  0  0
   -2.4380   -2.6377    0.1199 N   0  3  0  0  0  0
   -2.4721   -3.4963   -0.4420 H   0  0  0  0  0  0
   -1.7127   -2.7290    0.8408 H   0  0  0  0  0  0
  1  2  1  0  0  0
  1 25  1  0  0  0
  1 26  1  0  0  0
  1 27  1  0  0  0
  2  3  2  0  0  0
  2 24  1  0  0  0
  3  4  1  0  0  0
  3 28  1  0  0  0
  4  5  2  0  0  0
  4 29  1  0  0  0
  5  6  1  0  0  0
  5 22  1  0  0  0
  6  7  2  0  0  0
  6 21  1  0  0  0
  7  8  1  0  0  0
  8  9  1  0  0  0
  9 10  1  0  0  0
  9 21  2  0  0  0
 10 14  1  0  0  0
 10 30  1  0  0  0
 10 44  1  0  0  0
 11 12  1  0  0  0
 11 31  1  0  0  0
 11 32  1  0  0  0
 11 44  1  0  0  0
 12 13  1  0  0  0
 12 33  1  0  0  0
 12 34  1  0  0  0
 13 14  1  0  0  0
 13 35  1  0  0  0
 13 36  1  0  0  0
 14 15  1  0  0  0
 14 37  1  0  0  0
 15 16  2  0  0  0
 15 20  1  0  0  0
 16 17  1  0  0  0
 16 38  1  0  0  0
 17 18  2  0  0  0
 17 39  1  0  0  0
 18 19  1  0  0  0
 18 40  1  0  0  0
 19 20  2  0  0  0
 19 41  1  0  0  0
 20 42  1  0  0  0
 22 23  1  0  0  0
 22 24  2  0  0  0
 24 43  1  0  0  0
 44 45  1  0  0  0
 44 46  1  0  0  0
M  CHG  1  44   1
M  END
> <energy>
101.574

> <i_ionizer_Ion_state_n>
1

> <i_ionizer_Tot_Q>
1

> <s_ionizer_Ion_centers>
44

> <s_ionizer_Ion_types>
N5

> <s_ionizer_Ion_ctrs_in>
11

> <r_ionizer_Ionization_penalty>
0.000148807

> <r_ionizer_Ionization_penalty_charging>
0.000148807

> <r_ionizer_Ionization_penalty_neutral>
0

$$$$
ZINC001211870051
                    3D
 Schrodinger Suite 2019-4.
 46 49  0  0  1  0            999 V2000
    4.4756    2.4185   -3.1026 F   0  0  0  0  0  0
    4.7331    3.0077   -1.9002 C   0  0  0  0  0  0
    6.0557    3.3396   -1.9175 F   0  0  0  0  0  0
    4.0553    4.1902   -1.9095 F   0  0  0  0  0  0
    4.3594    2.1450   -0.7169 C   0  0  0  0  0  0
    4.8645    2.4406    0.5620 C   0  0  0  0  0  0
    4.4829    1.6870    1.6720 C   0  0  0  0  0  0
    3.5609    0.6465    1.5289 C   0  0  0  0  0  0
    3.0357    0.3367    0.2704 C   0  0  0  0  0  0
    1.9946   -0.6743    0.1445 C   0  0  0  0  0  0
    1.9187   -1.5462   -0.8729 N   0  0  0  0  0  0
    0.6926   -2.1769   -0.6745 O   0  0  0  0  0  0
    0.1316   -1.6026    0.4331 C   0  0  0  0  0  0
   -1.3086   -1.9449    0.7327 C   0  0  1  0  0  0
   -2.8772   -3.7508    1.2870 C   0  0  0  0  0  0
   -3.9038   -2.6362    1.0847 C   0  0  0  0  0  0
   -3.6940   -1.9468   -0.2584 C   0  0  0  0  0  0
   -2.2469   -1.4200   -0.4086 C   0  0  1  0  0  0
   -2.2059    0.1006   -0.5009 C   0  0  0  0  0  0
   -2.7710    0.9151    0.4915 C   0  0  0  0  0  0
   -2.5926    2.2983    0.4624 C   0  0  0  0  0  0
   -1.8584    2.8897   -0.5641 C   0  0  0  0  0  0
   -1.3234    2.0970   -1.5764 C   0  0  0  0  0  0
   -1.5024    0.7129   -1.5530 C   0  0  0  0  0  0
    0.9241   -0.7259    1.0108 N   0  0  0  0  0  0
    3.4522    1.0770   -0.8504 C   0  0  0  0  0  0
    5.5657    3.2654    0.6946 H   0  0  0  0  0  0
    4.8817    1.9179    2.6551 H   0  0  0  0  0  0
    3.2359    0.0934    2.4067 H   0  0  0  0  0  0
   -1.5445   -1.4419    1.6802 H   0  0  0  0  0  0
   -2.9079   -4.0799    2.3315 H   0  0  0  0  0  0
   -3.1658   -4.6248    0.6862 H   0  0  0  0  0  0
   -4.9164   -3.0515    1.1425 H   0  0  0  0  0  0
   -3.8300   -1.9029    1.8955 H   0  0  0  0  0  0
   -4.4443   -1.1617   -0.3995 H   0  0  0  0  0  0
   -3.8858   -2.6822   -1.0509 H   0  0  0  0  0  0
   -1.8827   -1.8157   -1.3684 H   0  0  0  0  0  0
   -3.3364    0.4786    1.3125 H   0  0  0  0  0  0
   -3.0106    2.9117    1.2565 H   0  0  0  0  0  0
   -1.7020    3.9631   -0.5675 H   0  0  0  0  0  0
   -0.7476    2.5572   -2.3759 H   0  0  0  0  0  0
   -1.0597    0.1179   -2.3487 H   0  0  0  0  0  0
    3.0337    0.8515   -1.8320 H   0  0  0  0  0  0
   -1.4782   -3.4130    0.9338 N   0  3  0  0  0  0
   -1.2254   -3.9008    0.0664 H   0  0  0  0  0  0
   -0.8584   -3.7205    1.6924 H   0  0  0  0  0  0
  1  2  1  0  0  0
  2  3  1  0  0  0
  2  4  1  0  0  0
  2  5  1  0  0  0
  5  6  2  0  0  0
  5 26  1  0  0  0
  6  7  1  0  0  0
  6 27  1  0  0  0
  7  8  2  0  0  0
  7 28  1  0  0  0
  8  9  1  0  0  0
  8 29  1  0  0  0
  9 10  1  0  0  0
  9 26  2  0  0  0
 10 11  2  0  0  0
 10 25  1  0  0  0
 11 12  1  0  0  0
 12 13  1  0  0  0
 13 14  1  0  0  0
 13 25  2  0  0  0
 14 18  1  0  0  0
 14 30  1  0  0  0
 14 44  1  0  0  0
 15 16  1  0  0  0
 15 31  1  0  0  0
 15 32  1  0  0  0
 15 44  1  0  0  0
 16 17  1  0  0  0
 16 33  1  0  0  0
 16 34  1  0  0  0
 17 18  1  0  0  0
 17 35  1  0  0  0
 17 36  1  0  0  0
 18 19  1  0  0  0
 18 37  1  0  0  0
 19 20  2  0  0  0
 19 24  1  0  0  0
 20 21  1  0  0  0
 20 38  1  0  0  0
 21 22  2  0  0  0
 21 39  1  0  0  0
 22 23  1  0  0  0
 22 40  1  0  0  0
 23 24  2  0  0  0
 23 41  1  0  0  0
 24 42  1  0  0  0
 26 43  1  0  0  0
 44 45  1  0  0  0
 44 46  1  0  0  0
M  CHG  1  44   1
M  END
> <energy>
123.362

> <i_ionizer_Ion_state_n>
1

> <i_ionizer_Tot_Q>
1

> <s_ionizer_Ion_centers>
44

> <s_ionizer_Ion_types>
N5

> <s_ionizer_Ion_ctrs_in>
15

> <r_ionizer_Ionization_penalty>
0.000148807

> <r_ionizer_Ionization_penalty_charging>
0.000148807

> <r_ionizer_Ionization_penalty_neutral>
0

$$$$
ZINC001211870052
                    3D
 Schrodinger Suite 2019-4.
 46 49  0  0  1  0            999 V2000
   -0.2127    6.5540    1.5120 F   0  0  0  0  0  0
   -0.6598    5.5857    0.6615 C   0  0  0  0  0  0
   -1.2733    6.2457   -0.3589 F   0  0  0  0  0  0
   -1.6488    4.9336    1.3336 F   0  0  0  0  0  0
    0.4314    4.6678    0.1786 C   0  0  0  0  0  0
    1.7707    5.0817    0.1692 C   0  0  0  0  0  0
    2.7694    4.2427   -0.3260 C   0  0  0  0  0  0
    2.4428    2.9812   -0.8219 C   0  0  0  0  0  0
    1.1127    2.5443   -0.8214 C   0  0  0  0  0  0
    0.7519    1.2162   -1.2957 C   0  0  0  0  0  0
    1.4641    0.4956   -2.1769 N   0  0  0  0  0  0
    0.7430   -0.6997   -2.2767 O   0  0  0  0  0  0
   -0.3273   -0.5800   -1.4380 C   0  0  0  0  0  0
   -1.2821   -1.7422   -1.3514 C   0  0  1  0  0  0
   -3.6143   -1.9693   -0.5011 C   0  0  0  0  0  0
   -3.0625   -2.2817    0.8760 C   0  0  0  0  0  0
   -1.8969   -3.2423    0.7534 C   0  0  0  0  0  0
   -0.8463   -2.8401   -0.3036 C   0  0  2  0  0  0
    0.5129   -2.6532    0.3628 C   0  0  0  0  0  0
    1.5946   -3.4614   -0.0188 C   0  0  0  0  0  0
    2.8479   -3.2990    0.5742 C   0  0  0  0  0  0
    3.0350   -2.3269    1.5546 C   0  0  0  0  0  0
    1.9724   -1.5129    1.9395 C   0  0  0  0  0  0
    0.7165   -1.6796    1.3533 C   0  0  0  0  0  0
   -0.3804    0.5879   -0.8355 N   0  0  0  0  0  0
    0.1169    3.3949   -0.3176 C   0  0  0  0  0  0
    2.0401    6.0683    0.5427 H   0  0  0  0  0  0
    3.8052    4.5736   -0.3261 H   0  0  0  0  0  0
    3.2356    2.3318   -1.1885 H   0  0  0  0  0  0
   -1.2279   -2.2432   -2.3294 H   0  0  0  0  0  0
   -4.5269   -1.3752   -0.3888 H   0  0  0  0  0  0
   -3.8986   -2.8870   -1.0327 H   0  0  0  0  0  0
   -2.7485   -1.3601    1.3819 H   0  0  0  0  0  0
   -3.8445   -2.7334    1.4986 H   0  0  0  0  0  0
   -2.3089   -4.2183    0.4603 H   0  0  0  0  0  0
   -1.4543   -3.4068    1.7434 H   0  0  0  0  0  0
   -0.7431   -3.7537   -0.9094 H   0  0  0  0  0  0
    1.4734   -4.2377   -0.7723 H   0  0  0  0  0  0
    3.6808   -3.9295    0.2678 H   0  0  0  0  0  0
    4.0084   -2.2030    2.0214 H   0  0  0  0  0  0
    2.1167   -0.7425    2.6946 H   0  0  0  0  0  0
   -0.1038   -1.0369    1.6703 H   0  0  0  0  0  0
   -0.9205    3.0575   -0.3180 H   0  0  0  0  0  0
   -2.6697   -1.1630   -1.2890 N   0  3  0  0  0  0
   -2.6123   -0.2285   -0.8674 H   0  0  0  0  0  0
   -3.0317   -1.0848   -2.2466 H   0  0  0  0  0  0
  1  2  1  0  0  0
  2  3  1  0  0  0
  2  4  1  0  0  0
  2  5  1  0  0  0
  5  6  2  0  0  0
  5 26  1  0  0  0
  6  7  1  0  0  0
  6 27  1  0  0  0
  7  8  2  0  0  0
  7 28  1  0  0  0
  8  9  1  0  0  0
  8 29  1  0  0  0
  9 10  1  0  0  0
  9 26  2  0  0  0
 10 11  2  0  0  0
 10 25  1  0  0  0
 11 12  1  0  0  0
 12 13  1  0  0  0
 13 14  1  0  0  0
 13 25  2  0  0  0
 14 18  1  0  0  0
 14 30  1  0  0  0
 14 44  1  0  0  0
 15 16  1  0  0  0
 15 31  1  0  0  0
 15 32  1  0  0  0
 15 44  1  0  0  0
 16 17  1  0  0  0
 16 33  1  0  0  0
 16 34  1  0  0  0
 17 18  1  0  0  0
 17 35  1  0  0  0
 17 36  1  0  0  0
 18 19  1  0  0  0
 18 37  1  0  0  0
 19 20  2  0  0  0
 19 24  1  0  0  0
 20 21  1  0  0  0
 20 38  1  0  0  0
 21 22  2  0  0  0
 21 39  1  0  0  0
 22 23  1  0  0  0
 22 40  1  0  0  0
 23 24  2  0  0  0
 23 41  1  0  0  0
 24 42  1  0  0  0
 26 43  1  0  0  0
 44 45  1  0  0  0
 44 46  1  0  0  0
M  CHG  1  44   1
M  END
> <energy>
128.764

> <i_ionizer_Ion_state_n>
1

> <i_ionizer_Tot_Q>
1

> <s_ionizer_Ion_centers>
44

> <s_ionizer_Ion_types>
N5

> <s_ionizer_Ion_ctrs_in>
15

> <r_ionizer_Ionization_penalty>
0.000148807

> <r_ionizer_Ionization_penalty_charging>
0.000148807

> <r_ionizer_Ionization_penalty_neutral>
0

$$$$
ZINC001211870053
                    3D
 Schrodinger Suite 2019-4.
 46 49  0  0  1  0            999 V2000
    6.4238   -2.3424   -1.6348 F   0  0  0  0  0  0
    5.0875   -2.5977   -1.5747 C   0  0  0  0  0  0
    4.9713   -3.9460   -1.4183 F   0  0  0  0  0  0
    4.5987   -2.3212   -2.8169 F   0  0  0  0  0  0
    4.3682   -1.8208   -0.4993 C   0  0  0  0  0  0
    5.0041   -0.8128    0.2377 C   0  0  0  0  0  0
    4.3014   -0.0844    1.1979 C   0  0  0  0  0  0
    2.9405   -0.3201    1.4055 C   0  0  0  0  0  0
    2.2772   -1.3040    0.6654 C   0  0  0  0  0  0
    0.8339   -1.4751    0.7616 C   0  0  0  0  0  0
    0.2039   -2.6175    0.4536 N   0  0  0  0  0  0
   -1.1443   -2.2795    0.5274 O   0  0  0  0  0  0
   -1.1993   -0.9553    0.8648 C   0  0  0  0  0  0
   -2.5790   -0.3604    0.9121 C   0  0  2  0  0  0
   -2.8094    0.7639    3.1290 C   0  0  0  0  0  0
   -1.8764    1.8078    2.5289 C   0  0  0  0  0  0
   -2.2595    2.2073    1.1073 C   0  0  0  0  0  0
   -2.7241    1.0222    0.2284 C   0  0  1  0  0  0
   -2.2098    1.0574   -1.2095 C   0  0  0  0  0  0
   -3.0617    0.6911   -2.2633 C   0  0  0  0  0  0
   -2.6411    0.7915   -3.5922 C   0  0  0  0  0  0
   -1.3517    1.2261   -3.8871 C   0  0  0  0  0  0
   -0.4689    1.5171   -2.8513 C   0  0  0  0  0  0
   -0.8941    1.4323   -1.5230 C   0  0  0  0  0  0
   -0.0099   -0.4315    1.0770 N   0  0  0  0  0  0
    3.0060   -2.0698   -0.2596 C   0  0  0  0  0  0
    6.0552   -0.5884    0.0640 H   0  0  0  0  0  0
    4.8077    0.6949    1.7626 H   0  0  0  0  0  0
    2.4029    0.2789    2.1370 H   0  0  0  0  0  0
   -3.2074   -1.0498    0.3271 H   0  0  0  0  0  0
   -3.7409    1.2606    3.4213 H   0  0  0  0  0  0
   -2.3638    0.3823    4.0588 H   0  0  0  0  0  0
   -0.8457    1.4375    2.5407 H   0  0  0  0  0  0
   -1.8747    2.7036    3.1623 H   0  0  0  0  0  0
   -3.0886    2.9274    1.1737 H   0  0  0  0  0  0
   -1.4266    2.7749    0.6732 H   0  0  0  0  0  0
   -3.8120    1.1881    0.1343 H   0  0  0  0  0  0
   -4.0686    0.3300   -2.0601 H   0  0  0  0  0  0
   -3.3273    0.5436   -4.3981 H   0  0  0  0  0  0
   -1.0257    1.3129   -4.9220 H   0  0  0  0  0  0
    0.5480    1.8237   -3.0773 H   0  0  0  0  0  0
   -0.1727    1.6575   -0.7391 H   0  0  0  0  0  0
    2.5013   -2.8514   -0.8288 H   0  0  0  0  0  0
   -3.1981   -0.3951    2.2844 N   0  3  0  0  0  0
   -4.2197   -0.3966    2.1821 H   0  0  0  0  0  0
   -2.9000   -1.2572    2.7558 H   0  0  0  0  0  0
  1  2  1  0  0  0
  2  3  1  0  0  0
  2  4  1  0  0  0
  2  5  1  0  0  0
  5  6  2  0  0  0
  5 26  1  0  0  0
  6  7  1  0  0  0
  6 27  1  0  0  0
  7  8  2  0  0  0
  7 28  1  0  0  0
  8  9  1  0  0  0
  8 29  1  0  0  0
  9 10  1  0  0  0
  9 26  2  0  0  0
 10 11  2  0  0  0
 10 25  1  0  0  0
 11 12  1  0  0  0
 12 13  1  0  0  0
 13 14  1  0  0  0
 13 25  2  0  0  0
 14 18  1  0  0  0
 14 30  1  0  0  0
 14 44  1  0  0  0
 15 16  1  0  0  0
 15 31  1  0  0  0
 15 32  1  0  0  0
 15 44  1  0  0  0
 16 17  1  0  0  0
 16 33  1  0  0  0
 16 34  1  0  0  0
 17 18  1  0  0  0
 17 35  1  0  0  0
 17 36  1  0  0  0
 18 19  1  0  0  0
 18 37  1  0  0  0
 19 20  2  0  0  0
 19 24  1  0  0  0
 20 21  1  0  0  0
 20 38  1  0  0  0
 21 22  2  0  0  0
 21 39  1  0  0  0
 22 23  1  0  0  0
 22 40  1  0  0  0
 23 24  2  0  0  0
 23 41  1  0  0  0
 24 42  1  0  0  0
 26 43  1  0  0  0
 44 45  1  0  0  0
 44 46  1  0  0  0
M  CHG  1  44   1
M  END
> <energy>
123.583

> <i_ionizer_Ion_state_n>
1

> <i_ionizer_Tot_Q>
1

> <s_ionizer_Ion_centers>
44

> <s_ionizer_Ion_types>
N5

> <s_ionizer_Ion_ctrs_in>
15

> <r_ionizer_Ionization_penalty>
0.000148807

> <r_ionizer_Ionization_penalty_charging>
0.000148807

> <r_ionizer_Ionization_penalty_neutral>
0

$$$$
ZINC001211870054
                    3D
 Schrodinger Suite 2019-4.
 46 49  0  0  1  0            999 V2000
    7.3017   -1.0806    0.3169 F   0  0  0  0  0  0
    6.3187   -0.3456    0.9048 C   0  0  0  0  0  0
    5.5898   -1.2274    1.6428 F   0  0  0  0  0  0
    6.9413    0.4626    1.8060 F   0  0  0  0  0  0
    5.5095    0.4407   -0.0856 C   0  0  0  0  0  0
    6.1027    1.0252   -1.2153 C   0  0  0  0  0  0
    5.3288    1.7522   -2.1244 C   0  0  0  0  0  0
    3.9583    1.9132   -1.9099 C   0  0  0  0  0  0
    3.3616    1.3387   -0.7862 C   0  0  0  0  0  0
    1.9334    1.3575   -0.5857 C   0  0  0  0  0  0
    1.1905    2.4417   -0.3218 N   0  0  0  0  0  0
   -0.0824    1.9030   -0.0733 O   0  0  0  0  0  0
    0.0377    0.5538   -0.2425 C   0  0  0  0  0  0
   -1.1283   -0.3533    0.0210 C   0  0  2  0  0  0
   -0.9699   -0.6004    2.4458 C   0  0  0  0  0  0
   -2.4109   -0.1490    2.6441 C   0  0  0  0  0  0
   -2.8442    0.8282    1.5547 C   0  0  0  0  0  0
   -2.5014    0.3581    0.1296 C   0  0  2  0  0  0
   -3.6081   -0.4977   -0.4814 C   0  0  0  0  0  0
   -3.7822   -1.8522   -0.1526 C   0  0  0  0  0  0
   -4.7206   -2.6343   -0.8241 C   0  0  0  0  0  0
   -5.4955   -2.0704   -1.8300 C   0  0  0  0  0  0
   -5.3560   -0.7216   -2.1441 C   0  0  0  0  0  0
   -4.4300    0.0652   -1.4668 C   0  0  0  0  0  0
    1.2517    0.1728   -0.5491 N   0  0  0  0  0  0
    4.1392    0.6139    0.1243 C   0  0  0  0  0  0
    7.1700    0.9016   -1.3980 H   0  0  0  0  0  0
    5.7887    2.1763   -3.0128 H   0  0  0  0  0  0
    3.3569    2.4527   -2.6381 H   0  0  0  0  0  0
   -1.1552   -0.9962   -0.8718 H   0  0  0  0  0  0
   -0.2825    0.2496    2.5340 H   0  0  0  0  0  0
   -0.7011   -1.3080    3.2370 H   0  0  0  0  0  0
   -2.5125    0.3305    3.6239 H   0  0  0  0  0  0
   -3.0768   -1.0198    2.6539 H   0  0  0  0  0  0
   -2.3268    1.7797    1.7361 H   0  0  0  0  0  0
   -3.9161    1.0391    1.6542 H   0  0  0  0  0  0
   -2.4601    1.2679   -0.4863 H   0  0  0  0  0  0
   -3.1650   -2.3283    0.6053 H   0  0  0  0  0  0
   -4.8342   -3.6872   -0.5785 H   0  0  0  0  0  0
   -6.2027   -2.6863   -2.3732 H   0  0  0  0  0  0
   -5.9566   -0.2787   -2.9311 H   0  0  0  0  0  0
   -4.3369    1.1137   -1.7404 H   0  0  0  0  0  0
    3.6635    0.1578    0.9932 H   0  0  0  0  0  0
   -0.8195   -1.2813    1.1532 N   0  3  0  0  0  0
   -1.4629   -2.0807    1.1178 H   0  0  0  0  0  0
    0.1469   -1.6154    1.0600 H   0  0  0  0  0  0
  1  2  1  0  0  0
  2  3  1  0  0  0
  2  4  1  0  0  0
  2  5  1  0  0  0
  5  6  2  0  0  0
  5 26  1  0  0  0
  6  7  1  0  0  0
  6 27  1  0  0  0
  7  8  2  0  0  0
  7 28  1  0  0  0
  8  9  1  0  0  0
  8 29  1  0  0  0
  9 10  1  0  0  0
  9 26  2  0  0  0
 10 11  2  0  0  0
 10 25  1  0  0  0
 11 12  1  0  0  0
 12 13  1  0  0  0
 13 14  1  0  0  0
 13 25  2  0  0  0
 14 18  1  0  0  0
 14 30  1  0  0  0
 14 44  1  0  0  0
 15 16  1  0  0  0
 15 31  1  0  0  0
 15 32  1  0  0  0
 15 44  1  0  0  0
 16 17  1  0  0  0
 16 33  1  0  0  0
 16 34  1  0  0  0
 17 18  1  0  0  0
 17 35  1  0  0  0
 17 36  1  0  0  0
 18 19  1  0  0  0
 18 37  1  0  0  0
 19 20  2  0  0  0
 19 24  1  0  0  0
 20 21  1  0  0  0
 20 38  1  0  0  0
 21 22  2  0  0  0
 21 39  1  0  0  0
 22 23  1  0  0  0
 22 40  1  0  0  0
 23 24  2  0  0  0
 23 41  1  0  0  0
 24 42  1  0  0  0
 26 43  1  0  0  0
 44 45  1  0  0  0
 44 46  1  0  0  0
M  CHG  1  44   1
M  END
> <energy>
118.83

> <i_ionizer_Ion_state_n>
1

> <i_ionizer_Tot_Q>
1

> <s_ionizer_Ion_centers>
44

> <s_ionizer_Ion_types>
N5

> <s_ionizer_Ion_ctrs_in>
15

> <r_ionizer_Ionization_penalty>
0.000148807

> <r_ionizer_Ionization_penalty_charging>
0.000148807

> <r_ionizer_Ionization_penalty_neutral>
0

$$$$
ZINC001211870149
                    3D
 Schrodinger Suite 2019-4.
 43 46  0  0  1  0            999 V2000
    6.4005    2.3279    1.1485 F   0  0  0  0  0  0
    5.6777    1.6031    0.2816 C   0  0  0  0  0  0
    4.4179    1.1552    0.6758 C   0  0  0  0  0  0
    3.6316    0.4053   -0.2087 C   0  0  0  0  0  0
    2.3069   -0.0627    0.1780 C   0  0  0  0  0  0
    1.9092   -0.2046    1.4519 N   0  0  0  0  0  0
    0.6106   -0.6963    1.3383 O   0  0  0  0  0  0
    0.3360   -0.7656    0.0031 C   0  0  0  0  0  0
   -1.0193   -1.2632   -0.4140 C   0  0  2  0  0  0
   -2.2541   -3.2656   -1.0525 C   0  0  0  0  0  0
   -3.3692   -2.9490   -0.0626 C   0  0  0  0  0  0
   -3.4947   -1.4457    0.1555 C   0  0  0  0  0  0
   -2.1415   -0.8333    0.5752 C   0  0  2  0  0  0
   -2.2735    0.6764    0.7281 C   0  0  0  0  0  0
   -2.6394    1.4982   -0.3479 C   0  0  0  0  0  0
   -2.7696    2.8779   -0.1786 C   0  0  0  0  0  0
   -2.5268    3.4567    1.0649 C   0  0  0  0  0  0
   -2.1497    2.6555    2.1402 C   0  0  0  0  0  0
   -2.0265    1.2751    1.9736 C   0  0  0  0  0  0
    1.3533   -0.4110   -0.7534 N   0  0  0  0  0  0
    4.1373    0.1117   -1.4869 C   0  0  0  0  0  0
    5.4073    0.5572   -1.8731 C   0  0  0  0  0  0
    6.1764    1.3063   -0.9851 C   0  0  0  0  0  0
    7.7312    1.8625   -1.4707 Cl  0  0  0  0  0  0
    4.0599    1.4121    1.6695 H   0  0  0  0  0  0
   -1.2230   -0.8247   -1.4003 H   0  0  0  0  0  0
   -2.4937   -2.8602   -2.0441 H   0  0  0  0  0  0
   -2.1702   -4.3521   -1.1614 H   0  0  0  0  0  0
   -4.3201   -3.3469   -0.4364 H   0  0  0  0  0  0
   -3.1702   -3.4426    0.8977 H   0  0  0  0  0  0
   -4.2538   -1.2456    0.9209 H   0  0  0  0  0  0
   -3.8553   -0.9888   -0.7749 H   0  0  0  0  0  0
   -1.9010   -1.2537    1.5631 H   0  0  0  0  0  0
   -2.8332    1.0778   -1.3323 H   0  0  0  0  0  0
   -3.0642    3.5024   -1.0177 H   0  0  0  0  0  0
   -2.6312    4.5296    1.1981 H   0  0  0  0  0  0
   -1.9537    3.1029    3.1107 H   0  0  0  0  0  0
   -1.7289    0.6690    2.8277 H   0  0  0  0  0  0
    3.5427   -0.4691   -2.1905 H   0  0  0  0  0  0
    5.7862    0.3158   -2.8631 H   0  0  0  0  0  0
   -0.9627   -2.7450   -0.5824 N   0  3  0  0  0  0
   -0.2356   -2.9784   -1.2687 H   0  0  0  0  0  0
   -0.7334   -3.1780    0.3199 H   0  0  0  0  0  0
  1  2  1  0  0  0
  2  3  2  0  0  0
  2 23  1  0  0  0
  3  4  1  0  0  0
  3 25  1  0  0  0
  4  5  1  0  0  0
  4 21  2  0  0  0
  5  6  2  0  0  0
  5 20  1  0  0  0
  6  7  1  0  0  0
  7  8  1  0  0  0
  8  9  1  0  0  0
  8 20  2  0  0  0
  9 13  1  0  0  0
  9 26  1  0  0  0
  9 41  1  0  0  0
 10 11  1  0  0  0
 10 27  1  0  0  0
 10 28  1  0  0  0
 10 41  1  0  0  0
 11 12  1  0  0  0
 11 29  1  0  0  0
 11 30  1  0  0  0
 12 13  1  0  0  0
 12 31  1  0  0  0
 12 32  1  0  0  0
 13 14  1  0  0  0
 13 33  1  0  0  0
 14 15  2  0  0  0
 14 19  1  0  0  0
 15 16  1  0  0  0
 15 34  1  0  0  0
 16 17  2  0  0  0
 16 35  1  0  0  0
 17 18  1  0  0  0
 17 36  1  0  0  0
 18 19  2  0  0  0
 18 37  1  0  0  0
 19 38  1  0  0  0
 21 22  1  0  0  0
 21 39  1  0  0  0
 22 23  2  0  0  0
 22 40  1  0  0  0
 23 24  1  0  0  0
 41 42  1  0  0  0
 41 43  1  0  0  0
M  CHG  1  41   1
M  END
> <energy>
86.8828

> <i_ionizer_Ion_state_n>
1

> <i_ionizer_Tot_Q>
1

> <s_ionizer_Ion_centers>
41

> <s_ionizer_Ion_types>
N5

> <s_ionizer_Ion_ctrs_in>
10

> <r_ionizer_Ionization_penalty>
0.000148807

> <r_ionizer_Ionization_penalty_charging>
0.000148807

> <r_ionizer_Ionization_penalty_neutral>
0

$$$$
ZINC001211870150
                    3D
 Schrodinger Suite 2019-4.
 43 46  0  0  1  0            999 V2000
    5.3577    1.1091   -2.8938 F   0  0  0  0  0  0
    4.8996    1.3166   -1.6490 C   0  0  0  0  0  0
    3.8722    0.5045   -1.1717 C   0  0  0  0  0  0
    3.3726    0.6918    0.1251 C   0  0  0  0  0  0
    2.2657   -0.1200    0.6171 C   0  0  0  0  0  0
    1.9269   -0.2120    1.9146 N   0  0  0  0  0  0
    0.7685   -0.9801    1.9016 O   0  0  0  0  0  0
    0.5095   -1.2718    0.5923 C   0  0  0  0  0  0
   -0.7790   -2.0051    0.3193 C   0  0  1  0  0  0
   -2.1543   -3.1093   -1.3624 C   0  0  0  0  0  0
   -3.3999   -2.3376   -0.9336 C   0  0  0  0  0  0
   -3.3325   -1.9111    0.5311 C   0  0  0  0  0  0
   -2.0004   -1.2333    0.9121 C   0  0  2  0  0  0
   -2.0437    0.2725    0.6544 C   0  0  0  0  0  0
   -1.8758    0.8241   -0.6222 C   0  0  0  0  0  0
   -1.8888    2.2092   -0.8055 C   0  0  0  0  0  0
   -2.0727    3.0623    0.2812 C   0  0  0  0  0  0
   -2.2428    2.5314    1.5553 C   0  0  0  0  0  0
   -2.2353    1.1471    1.7394 C   0  0  0  0  0  0
    1.4386   -0.8267   -0.2276 N   0  0  0  0  0  0
    3.9277    1.7070    0.9248 C   0  0  0  0  0  0
    4.9499    2.5271    0.4357 C   0  0  0  0  0  0
    5.4343    2.3290   -0.8564 C   0  0  0  0  0  0
    6.6800    3.3517   -1.4572 Cl  0  0  0  0  0  0
    3.4654   -0.2649   -1.8216 H   0  0  0  0  0  0
   -0.7048   -2.9617    0.8576 H   0  0  0  0  0  0
   -2.1072   -4.0740   -0.8422 H   0  0  0  0  0  0
   -2.2200   -3.3333   -2.4330 H   0  0  0  0  0  0
   -3.5287   -1.4558   -1.5727 H   0  0  0  0  0  0
   -4.2882   -2.9637   -1.0869 H   0  0  0  0  0  0
   -3.4438   -2.8126    1.1466 H   0  0  0  0  0  0
   -4.1887   -1.2679    0.7697 H   0  0  0  0  0  0
   -1.9165   -1.3452    2.0044 H   0  0  0  0  0  0
   -1.7151    0.1882   -1.4898 H   0  0  0  0  0  0
   -1.7451    2.6229   -1.8001 H   0  0  0  0  0  0
   -2.0820    4.1392    0.1361 H   0  0  0  0  0  0
   -2.3767    3.1900    2.4096 H   0  0  0  0  0  0
   -2.3640    0.7553    2.7457 H   0  0  0  0  0  0
    3.5496    1.8810    1.9320 H   0  0  0  0  0  0
    5.3511    3.3189    1.0626 H   0  0  0  0  0  0
   -0.9312   -2.3307   -1.1285 N   0  3  0  0  0  0
   -0.9800   -1.4576   -1.6666 H   0  0  0  0  0  0
   -0.1195   -2.8783   -1.4376 H   0  0  0  0  0  0
  1  2  1  0  0  0
  2  3  2  0  0  0
  2 23  1  0  0  0
  3  4  1  0  0  0
  3 25  1  0  0  0
  4  5  1  0  0  0
  4 21  2  0  0  0
  5  6  2  0  0  0
  5 20  1  0  0  0
  6  7  1  0  0  0
  7  8  1  0  0  0
  8  9  1  0  0  0
  8 20  2  0  0  0
  9 13  1  0  0  0
  9 26  1  0  0  0
  9 41  1  0  0  0
 10 11  1  0  0  0
 10 27  1  0  0  0
 10 28  1  0  0  0
 10 41  1  0  0  0
 11 12  1  0  0  0
 11 29  1  0  0  0
 11 30  1  0  0  0
 12 13  1  0  0  0
 12 31  1  0  0  0
 12 32  1  0  0  0
 13 14  1  0  0  0
 13 33  1  0  0  0
 14 15  2  0  0  0
 14 19  1  0  0  0
 15 16  1  0  0  0
 15 34  1  0  0  0
 16 17  2  0  0  0
 16 35  1  0  0  0
 17 18  1  0  0  0
 17 36  1  0  0  0
 18 19  2  0  0  0
 18 37  1  0  0  0
 19 38  1  0  0  0
 21 22  1  0  0  0
 21 39  1  0  0  0
 22 23  2  0  0  0
 22 40  1  0  0  0
 23 24  1  0  0  0
 41 42  1  0  0  0
 41 43  1  0  0  0
M  CHG  1  41   1
M  END
> <energy>
90.9284

> <i_ionizer_Ion_state_n>
1

> <i_ionizer_Tot_Q>
1

> <s_ionizer_Ion_centers>
41

> <s_ionizer_Ion_types>
N5

> <s_ionizer_Ion_ctrs_in>
10

> <r_ionizer_Ionization_penalty>
0.000148807

> <r_ionizer_Ionization_penalty_charging>
0.000148807

> <r_ionizer_Ionization_penalty_neutral>
0

$$$$
ZINC001211870151
                    3D
 Schrodinger Suite 2019-4.
 43 46  0  0  1  0            999 V2000
    3.8140    5.3215    1.2062 F   0  0  0  0  0  0
    3.8543    4.0574    0.7659 C   0  0  0  0  0  0
    2.8626    3.1679    1.1872 C   0  0  0  0  0  0
    2.8738    1.8433    0.7326 C   0  0  0  0  0  0
    1.8441    0.8923    1.1193 C   0  0  0  0  0  0
    1.1636    0.9271    2.2762 N   0  0  0  0  0  0
    0.3079   -0.1772    2.1826 O   0  0  0  0  0  0
    0.5256   -0.7344    0.9515 C   0  0  0  0  0  0
   -0.4343   -1.8162    0.5148 C   0  0  1  0  0  0
    0.5745   -3.0709   -1.3157 C   0  0  0  0  0  0
   -0.7019   -3.1196   -2.1617 C   0  0  0  0  0  0
   -1.8709   -2.3527   -1.5346 C   0  0  0  0  0  0
   -1.3662   -1.2408   -0.6022 C   0  0  1  0  0  0
   -2.4860   -0.4002   -0.0045 C   0  0  0  0  0  0
   -2.3366    0.9936    0.0650 C   0  0  0  0  0  0
   -3.3481    1.7948    0.5981 C   0  0  0  0  0  0
   -4.5193    1.2140    1.0718 C   0  0  0  0  0  0
   -4.6678   -0.1698    1.0381 C   0  0  0  0  0  0
   -3.6517   -0.9747    0.5158 C   0  0  0  0  0  0
    1.4749   -0.1287    0.2725 N   0  0  0  0  0  0
    3.8899    1.4354   -0.1483 C   0  0  0  0  0  0
    4.8909    2.3238   -0.5512 C   0  0  0  0  0  0
    4.8691    3.6405   -0.0958 C   0  0  0  0  0  0
    6.0858    4.7369   -0.6189 Cl  0  0  0  0  0  0
    2.0857    3.5311    1.8554 H   0  0  0  0  0  0
   -1.0375   -2.0897    1.3899 H   0  0  0  0  0  0
    1.1779   -2.1974   -1.5878 H   0  0  0  0  0  0
    1.1941   -3.9445   -1.5478 H   0  0  0  0  0  0
   -0.4798   -2.7007   -3.1496 H   0  0  0  0  0  0
   -1.0112   -4.1582   -2.3273 H   0  0  0  0  0  0
   -2.4963   -3.0614   -0.9780 H   0  0  0  0  0  0
   -2.5068   -1.9414   -2.3270 H   0  0  0  0  0  0
   -0.7735   -0.5764   -1.2469 H   0  0  0  0  0  0
   -1.4249    1.4705   -0.2922 H   0  0  0  0  0  0
   -3.2198    2.8731    0.6400 H   0  0  0  0  0  0
   -5.3151    1.8361    1.4711 H   0  0  0  0  0  0
   -5.5792   -0.6302    1.4178 H   0  0  0  0  0  0
   -3.7905   -2.0537    0.5260 H   0  0  0  0  0  0
    3.9035    0.4115   -0.5235 H   0  0  0  0  0  0
    5.6700    1.9822   -1.2298 H   0  0  0  0  0  0
    0.2819   -3.0699    0.1250 N   0  3  0  0  0  0
    1.1630   -3.1321    0.6484 H   0  0  0  0  0  0
   -0.3079   -3.8796    0.3501 H   0  0  0  0  0  0
  1  2  1  0  0  0
  2  3  2  0  0  0
  2 23  1  0  0  0
  3  4  1  0  0  0
  3 25  1  0  0  0
  4  5  1  0  0  0
  4 21  2  0  0  0
  5  6  2  0  0  0
  5 20  1  0  0  0
  6  7  1  0  0  0
  7  8  1  0  0  0
  8  9  1  0  0  0
  8 20  2  0  0  0
  9 13  1  0  0  0
  9 26  1  0  0  0
  9 41  1  0  0  0
 10 11  1  0  0  0
 10 27  1  0  0  0
 10 28  1  0  0  0
 10 41  1  0  0  0
 11 12  1  0  0  0
 11 29  1  0  0  0
 11 30  1  0  0  0
 12 13  1  0  0  0
 12 31  1  0  0  0
 12 32  1  0  0  0
 13 14  1  0  0  0
 13 33  1  0  0  0
 14 15  2  0  0  0
 14 19  1  0  0  0
 15 16  1  0  0  0
 15 34  1  0  0  0
 16 17  2  0  0  0
 16 35  1  0  0  0
 17 18  1  0  0  0
 17 36  1  0  0  0
 18 19  2  0  0  0
 18 37  1  0  0  0
 19 38  1  0  0  0
 21 22  1  0  0  0
 21 39  1  0  0  0
 22 23  2  0  0  0
 22 40  1  0  0  0
 23 24  1  0  0  0
 41 42  1  0  0  0
 41 43  1  0  0  0
M  CHG  1  41   1
M  END
> <energy>
95.7173

> <i_ionizer_Ion_state_n>
1

> <i_ionizer_Tot_Q>
1

> <s_ionizer_Ion_centers>
41

> <s_ionizer_Ion_types>
N5

> <s_ionizer_Ion_ctrs_in>
10

> <r_ionizer_Ionization_penalty>
0.000148807

> <r_ionizer_Ionization_penalty_charging>
0.000148807

> <r_ionizer_Ionization_penalty_neutral>
0

$$$$
ZINC001211870152
                    3D
 Schrodinger Suite 2019-4.
 43 46  0  0  1  0            999 V2000
    6.1671    1.6419   -1.7340 F   0  0  0  0  0  0
    5.4024    1.5841   -0.6334 C   0  0  0  0  0  0
    4.1869    0.9050   -0.6988 C   0  0  0  0  0  0
    3.3649    0.8248    0.4331 C   0  0  0  0  0  0
    2.0855    0.1371    0.3490 C   0  0  0  0  0  0
    1.5167   -0.5297    1.3669 N   0  0  0  0  0  0
    0.3411   -1.0374    0.8100 O   0  0  0  0  0  0
    0.2954   -0.5866   -0.4779 C   0  0  0  0  0  0
   -0.8834   -0.9751   -1.3307 C   0  0  2  0  0  0
   -1.8516   -2.9891   -2.3270 C   0  0  0  0  0  0
   -2.6744   -3.3356   -1.0849 C   0  0  0  0  0  0
   -2.6572   -2.2363   -0.0142 C   0  0  0  0  0  0
   -2.2700   -0.8728   -0.6167 C   0  0  1  0  0  0
   -2.4252    0.3338    0.3009 C   0  0  0  0  0  0
   -2.4964    0.2206    1.6963 C   0  0  0  0  0  0
   -2.6379    1.3558    2.4975 C   0  0  0  0  0  0
   -2.7120    2.6204    1.9206 C   0  0  0  0  0  0
   -2.6326    2.7523    0.5386 C   0  0  0  0  0  0
   -2.4903    1.6187   -0.2659 C   0  0  0  0  0  0
    1.3537    0.1190   -0.8161 N   0  0  0  0  0  0
    3.7882    1.4257    1.6302 C   0  0  0  0  0  0
    5.0093    2.1107    1.6883 C   0  0  0  0  0  0
    5.8137    2.1895    0.5523 C   0  0  0  0  0  0
    7.3025    3.0511    0.6268 Cl  0  0  0  0  0  0
    3.8913    0.4444   -1.6378 H   0  0  0  0  0  0
   -0.9137   -0.2464   -2.1546 H   0  0  0  0  0  0
   -2.4366   -2.3787   -3.0250 H   0  0  0  0  0  0
   -1.6061   -3.9158   -2.8577 H   0  0  0  0  0  0
   -2.3124   -4.2691   -0.6367 H   0  0  0  0  0  0
   -3.7062   -3.5253   -1.4008 H   0  0  0  0  0  0
   -1.9388   -2.5222    0.7636 H   0  0  0  0  0  0
   -3.6413   -2.1890    0.4700 H   0  0  0  0  0  0
   -3.0200   -0.7009   -1.4055 H   0  0  0  0  0  0
   -2.4251   -0.7470    2.1891 H   0  0  0  0  0  0
   -2.6877    1.2520    3.5781 H   0  0  0  0  0  0
   -2.8320    3.4999    2.5453 H   0  0  0  0  0  0
   -2.6732    3.7372    0.0813 H   0  0  0  0  0  0
   -2.4321    1.7492   -1.3462 H   0  0  0  0  0  0
    3.1642    1.3721    2.5234 H   0  0  0  0  0  0
    5.3160    2.5863    2.6169 H   0  0  0  0  0  0
   -0.6067   -2.3094   -1.9567 N   0  3  0  0  0  0
   -0.0365   -2.1724   -2.7995 H   0  0  0  0  0  0
   -0.0927   -2.8937   -1.2869 H   0  0  0  0  0  0
  1  2  1  0  0  0
  2  3  2  0  0  0
  2 23  1  0  0  0
  3  4  1  0  0  0
  3 25  1  0  0  0
  4  5  1  0  0  0
  4 21  2  0  0  0
  5  6  2  0  0  0
  5 20  1  0  0  0
  6  7  1  0  0  0
  7  8  1  0  0  0
  8  9  1  0  0  0
  8 20  2  0  0  0
  9 13  1  0  0  0
  9 26  1  0  0  0
  9 41  1  0  0  0
 10 11  1  0  0  0
 10 27  1  0  0  0
 10 28  1  0  0  0
 10 41  1  0  0  0
 11 12  1  0  0  0
 11 29  1  0  0  0
 11 30  1  0  0  0
 12 13  1  0  0  0
 12 31  1  0  0  0
 12 32  1  0  0  0
 13 14  1  0  0  0
 13 33  1  0  0  0
 14 15  2  0  0  0
 14 19  1  0  0  0
 15 16  1  0  0  0
 15 34  1  0  0  0
 16 17  2  0  0  0
 16 35  1  0  0  0
 17 18  1  0  0  0
 17 36  1  0  0  0
 18 19  2  0  0  0
 18 37  1  0  0  0
 19 38  1  0  0  0
 21 22  1  0  0  0
 21 39  1  0  0  0
 22 23  2  0  0  0
 22 40  1  0  0  0
 23 24  1  0  0  0
 41 42  1  0  0  0
 41 43  1  0  0  0
M  CHG  1  41   1
M  END
> <energy>
96.4997

> <i_ionizer_Ion_state_n>
1

> <i_ionizer_Tot_Q>
1

> <s_ionizer_Ion_centers>
41

> <s_ionizer_Ion_types>
N5

> <s_ionizer_Ion_ctrs_in>
10

> <r_ionizer_Ionization_penalty>
0.000148807

> <r_ionizer_Ionization_penalty_charging>
0.000148807

> <r_ionizer_Ionization_penalty_neutral>
0

$$$$
ZINC001211870161
                    3D
 Schrodinger Suite 2019-4.
 46 49  0  0  1  0            999 V2000
    4.6617   -3.5321   -1.2841 C   0  0  0  0  0  0
    4.1959   -2.2433   -0.6719 C   0  0  0  0  0  0
    4.9962   -1.0971   -0.7442 C   0  0  0  0  0  0
    4.5577    0.1088   -0.1919 C   0  0  0  0  0  0
    3.3062    0.1871    0.4237 C   0  0  0  0  0  0
    2.8409    1.7123    1.0904 Cl  0  0  0  0  0  0
    2.4808   -0.9432    0.4844 C   0  0  0  0  0  0
    1.1617   -0.8925    1.0807 C   0  0  0  0  0  0
    0.9352   -1.0901    2.3879 N   0  0  0  0  0  0
   -0.4396   -0.8858    2.5101 O   0  0  0  0  0  0
   -0.9067   -0.5981    1.2562 C   0  0  0  0  0  0
   -2.3705   -0.2565    1.1644 C   0  0  1  0  0  0
   -3.1819   -2.0854   -0.2536 C   0  0  0  0  0  0
   -3.6040   -1.1100   -1.3484 C   0  0  0  0  0  0
   -2.7133    0.1285   -1.3453 C   0  0  0  0  0  0
   -2.7063    0.7826    0.0530 C   0  0  2  0  0  0
   -1.8982    2.0690    0.1762 C   0  0  0  0  0  0
   -2.1547    2.9371    1.2528 C   0  0  0  0  0  0
   -1.4072    4.1036    1.4254 C   0  0  0  0  0  0
   -0.3976    4.4252    0.5242 C   0  0  0  0  0  0
   -0.1358    3.5810   -0.5506 C   0  0  0  0  0  0
   -0.8778    2.4116   -0.7212 C   0  0  0  0  0  0
    0.0318   -0.6502    0.3344 N   0  0  0  0  0  0
    2.9339   -2.1558   -0.0634 C   0  0  0  0  0  0
    4.3572   -4.3866   -0.6703 H   0  0  0  0  0  0
    5.7551   -3.5610   -1.3573 H   0  0  0  0  0  0
    4.2428   -3.6444   -2.2892 H   0  0  0  0  0  0
    5.9723   -1.1359   -1.2236 H   0  0  0  0  0  0
    5.1984    0.9872   -0.2487 H   0  0  0  0  0  0
   -2.6243    0.2096    2.1275 H   0  0  0  0  0  0
   -2.1785   -2.4751   -0.4550 H   0  0  0  0  0  0
   -3.8525   -2.9520   -0.2543 H   0  0  0  0  0  0
   -4.6488   -0.8100   -1.1949 H   0  0  0  0  0  0
   -3.5531   -1.6048   -2.3245 H   0  0  0  0  0  0
   -3.0758    0.8442   -2.0935 H   0  0  0  0  0  0
   -1.7037   -0.1678   -1.6515 H   0  0  0  0  0  0
   -3.7517    1.0910    0.2200 H   0  0  0  0  0  0
   -2.9363    2.7059    1.9751 H   0  0  0  0  0  0
   -1.6063    4.7537    2.2748 H   0  0  0  0  0  0
    0.1915    5.3266    0.6650 H   0  0  0  0  0  0
    0.6624    3.8217   -1.2477 H   0  0  0  0  0  0
   -0.6189    1.7644   -1.5540 H   0  0  0  0  0  0
    2.2956   -3.0367   -0.0118 H   0  0  0  0  0  0
   -3.2473   -1.4689    1.0876 N   0  3  0  0  0  0
   -2.9364   -2.1532    1.7871 H   0  0  0  0  0  0
   -4.2172   -1.1951    1.2843 H   0  0  0  0  0  0
  1  2  1  0  0  0
  1 25  1  0  0  0
  1 26  1  0  0  0
  1 27  1  0  0  0
  2  3  2  0  0  0
  2 24  1  0  0  0
  3  4  1  0  0  0
  3 28  1  0  0  0
  4  5  2  0  0  0
  4 29  1  0  0  0
  5  6  1  0  0  0
  5  7  1  0  0  0
  7  8  1  0  0  0
  7 24  2  0  0  0
  8  9  2  0  0  0
  8 23  1  0  0  0
  9 10  1  0  0  0
 10 11  1  0  0  0
 11 12  1  0  0  0
 11 23  2  0  0  0
 12 16  1  0  0  0
 12 30  1  0  0  0
 12 44  1  0  0  0
 13 14  1  0  0  0
 13 31  1  0  0  0
 13 32  1  0  0  0
 13 44  1  0  0  0
 14 15  1  0  0  0
 14 33  1  0  0  0
 14 34  1  0  0  0
 15 16  1  0  0  0
 15 35  1  0  0  0
 15 36  1  0  0  0
 16 17  1  0  0  0
 16 37  1  0  0  0
 17 18  2  0  0  0
 17 22  1  0  0  0
 18 19  1  0  0  0
 18 38  1  0  0  0
 19 20  2  0  0  0
 19 39  1  0  0  0
 20 21  1  0  0  0
 20 40  1  0  0  0
 21 22  2  0  0  0
 21 41  1  0  0  0
 22 42  1  0  0  0
 24 43  1  0  0  0
 44 45  1  0  0  0
 44 46  1  0  0  0
M  CHG  1  44   1
M  END
> <energy>
96.2912

> <i_ionizer_Ion_state_n>
1

> <i_ionizer_Tot_Q>
1

> <s_ionizer_Ion_centers>
44

> <s_ionizer_Ion_types>
N5

> <s_ionizer_Ion_ctrs_in>
13

> <r_ionizer_Ionization_penalty>
0.000148807

> <r_ionizer_Ionization_penalty_charging>
0.000148807

> <r_ionizer_Ionization_penalty_neutral>
0

$$$$
ZINC001211870162
                    3D
 Schrodinger Suite 2019-4.
 46 49  0  0  1  0            999 V2000
    1.1759   -4.8617   -3.1894 C   0  0  0  0  0  0
    1.0872   -4.5553   -1.7240 C   0  0  0  0  0  0
    0.8771   -5.5668   -0.7870 C   0  0  0  0  0  0
    0.7920   -5.2531    0.5719 C   0  0  0  0  0  0
    0.9251   -3.9286    1.0150 C   0  0  0  0  0  0
    0.7007   -3.6596    2.7089 Cl  0  0  0  0  0  0
    1.1720   -2.9009    0.0932 C   0  0  0  0  0  0
    1.3311   -1.4957    0.4530 C   0  0  0  0  0  0
    1.9439   -1.0406    1.5592 N   0  0  0  0  0  0
    1.8397    0.3473    1.4558 O   0  0  0  0  0  0
    1.2014    0.6008    0.2776 C   0  0  0  0  0  0
    0.8869    2.0299   -0.0643 C   0  0  1  0  0  0
    1.7787    4.2610   -0.4042 C   0  0  0  0  0  0
    0.6494    4.8904    0.4079 C   0  0  0  0  0  0
   -0.6057    4.0213    0.4006 C   0  0  0  0  0  0
   -0.2857    2.5726    0.8052 C   0  0  1  0  0  0
   -1.5649    1.7448    0.7731 C   0  0  0  0  0  0
   -2.2874    1.5540    1.9618 C   0  0  0  0  0  0
   -3.4509    0.7824    1.9737 C   0  0  0  0  0  0
   -3.9064    0.1870    0.8005 C   0  0  0  0  0  0
   -3.2079    0.3763   -0.3884 C   0  0  0  0  0  0
   -2.0528    1.1592   -0.4053 C   0  0  0  0  0  0
    0.8978   -0.4910   -0.3905 N   0  0  0  0  0  0
    1.2455   -3.2360   -1.2736 C   0  0  0  0  0  0
    0.6776   -5.8068   -3.4261 H   0  0  0  0  0  0
    0.6784   -4.0791   -3.7701 H   0  0  0  0  0  0
    2.2229   -4.9275   -3.5017 H   0  0  0  0  0  0
    0.7645   -6.6021   -1.1016 H   0  0  0  0  0  0
    0.6052   -6.0513    1.2876 H   0  0  0  0  0  0
    0.5921    2.0276   -1.1226 H   0  0  0  0  0  0
    2.6821    4.8720   -0.3100 H   0  0  0  0  0  0
    1.5195    4.2522   -1.4706 H   0  0  0  0  0  0
    0.4101    5.8796    0.0044 H   0  0  0  0  0  0
    0.9799    5.0383    1.4423 H   0  0  0  0  0  0
   -1.3478    4.4531    1.0841 H   0  0  0  0  0  0
   -1.0519    4.0424   -0.6037 H   0  0  0  0  0  0
    0.0676    2.5886    1.8475 H   0  0  0  0  0  0
   -1.9476    1.9999    2.8947 H   0  0  0  0  0  0
   -3.9970    0.6353    2.9022 H   0  0  0  0  0  0
   -4.7993   -0.4330    0.8120 H   0  0  0  0  0  0
   -3.5541   -0.0938   -1.3064 H   0  0  0  0  0  0
   -1.5336    1.2860   -1.3517 H   0  0  0  0  0  0
    1.4230   -2.4440   -2.0026 H   0  0  0  0  0  0
    2.0917    2.8980    0.0459 N   0  3  0  0  0  0
    2.4005    2.9268    1.0247 H   0  0  0  0  0  0
    2.8424    2.5120   -0.5386 H   0  0  0  0  0  0
  1  2  1  0  0  0
  1 25  1  0  0  0
  1 26  1  0  0  0
  1 27  1  0  0  0
  2  3  2  0  0  0
  2 24  1  0  0  0
  3  4  1  0  0  0
  3 28  1  0  0  0
  4  5  2  0  0  0
  4 29  1  0  0  0
  5  6  1  0  0  0
  5  7  1  0  0  0
  7  8  1  0  0  0
  7 24  2  0  0  0
  8  9  2  0  0  0
  8 23  1  0  0  0
  9 10  1  0  0  0
 10 11  1  0  0  0
 11 12  1  0  0  0
 11 23  2  0  0  0
 12 16  1  0  0  0
 12 30  1  0  0  0
 12 44  1  0  0  0
 13 14  1  0  0  0
 13 31  1  0  0  0
 13 32  1  0  0  0
 13 44  1  0  0  0
 14 15  1  0  0  0
 14 33  1  0  0  0
 14 34  1  0  0  0
 15 16  1  0  0  0
 15 35  1  0  0  0
 15 36  1  0  0  0
 16 17  1  0  0  0
 16 37  1  0  0  0
 17 18  2  0  0  0
 17 22  1  0  0  0
 18 19  1  0  0  0
 18 38  1  0  0  0
 19 20  2  0  0  0
 19 39  1  0  0  0
 20 21  1  0  0  0
 20 40  1  0  0  0
 21 22  2  0  0  0
 21 41  1  0  0  0
 22 42  1  0  0  0
 24 43  1  0  0  0
 44 45  1  0  0  0
 44 46  1  0  0  0
M  CHG  1  44   1
M  END
> <energy>
94.8306

> <i_ionizer_Ion_state_n>
1

> <i_ionizer_Tot_Q>
1

> <s_ionizer_Ion_centers>
44

> <s_ionizer_Ion_types>
N5

> <s_ionizer_Ion_ctrs_in>
13

> <r_ionizer_Ionization_penalty>
0.000148807

> <r_ionizer_Ionization_penalty_charging>
0.000148807

> <r_ionizer_Ionization_penalty_neutral>
0

$$$$
ZINC001211870163
                    3D
 Schrodinger Suite 2019-4.
 46 49  0  0  1  0            999 V2000
    5.3440   -0.8104    0.0272 C   0  0  0  0  0  0
    4.6226    0.0386    1.0339 C   0  0  0  0  0  0
    5.3117    0.6242    2.0975 C   0  0  0  0  0  0
    4.6244    1.3887    3.0422 C   0  0  0  0  0  0
    3.2368    1.5663    2.9467 C   0  0  0  0  0  0
    2.5101    2.5828    4.1447 Cl  0  0  0  0  0  0
    2.5197    0.9663    1.9013 C   0  0  0  0  0  0
    1.0734    1.0697    1.7437 C   0  0  0  0  0  0
    0.1916    1.0058    2.7537 N   0  0  0  0  0  0
   -1.0480    1.0446    2.1200 O   0  0  0  0  0  0
   -0.7990    1.1062    0.7810 C   0  0  0  0  0  0
   -1.9959    1.1120   -0.1332 C   0  0  2  0  0  0
   -3.4869    2.5710   -1.4325 C   0  0  0  0  0  0
   -3.9434    1.2452   -2.0429 C   0  0  0  0  0  0
   -2.7495    0.4196   -2.5042 C   0  0  0  0  0  0
   -1.7536    0.1634   -1.3500 C   0  0  2  0  0  0
   -1.7511   -1.3071   -0.9458 C   0  0  0  0  0  0
   -0.5909   -2.0754   -1.1373 C   0  0  0  0  0  0
   -0.5535   -3.4182   -0.7588 C   0  0  0  0  0  0
   -1.6737   -4.0121   -0.1816 C   0  0  0  0  0  0
   -2.8323   -3.2637    0.0128 C   0  0  0  0  0  0
   -2.8740   -1.9216   -0.3709 C   0  0  0  0  0  0
    0.4867    1.1337    0.4944 N   0  0  0  0  0  0
    3.2319    0.2074    0.9497 C   0  0  0  0  0  0
    6.3935   -0.5081   -0.0645 H   0  0  0  0  0  0
    4.8880   -0.7036   -0.9636 H   0  0  0  0  0  0
    5.3049   -1.8636    0.3259 H   0  0  0  0  0  0
    6.3878    0.4966    2.1968 H   0  0  0  0  0  0
    5.1802    1.8512    3.8551 H   0  0  0  0  0  0
   -2.8550    0.7667    0.4582 H   0  0  0  0  0  0
   -3.2872    3.2886   -2.2376 H   0  0  0  0  0  0
   -4.3146    2.9936   -0.8490 H   0  0  0  0  0  0
   -4.6122    1.4395   -2.8889 H   0  0  0  0  0  0
   -4.5282    0.6770   -1.3094 H   0  0  0  0  0  0
   -3.0905   -0.5116   -2.9737 H   0  0  0  0  0  0
   -2.2326    0.9815   -3.2943 H   0  0  0  0  0  0
   -0.7603    0.3876   -1.7655 H   0  0  0  0  0  0
    0.2973   -1.6325   -1.5819 H   0  0  0  0  0  0
    0.3516   -4.0011   -0.9110 H   0  0  0  0  0  0
   -1.6420   -5.0562    0.1197 H   0  0  0  0  0  0
   -3.7047   -3.7266    0.4662 H   0  0  0  0  0  0
   -3.7952   -1.3680   -0.2137 H   0  0  0  0  0  0
    2.6909   -0.2690    0.1332 H   0  0  0  0  0  0
   -2.2785    2.5106   -0.5815 N   0  3  0  0  0  0
   -2.4216    3.1037    0.2443 H   0  0  0  0  0  0
   -1.4748    2.8584   -1.1176 H   0  0  0  0  0  0
  1  2  1  0  0  0
  1 25  1  0  0  0
  1 26  1  0  0  0
  1 27  1  0  0  0
  2  3  2  0  0  0
  2 24  1  0  0  0
  3  4  1  0  0  0
  3 28  1  0  0  0
  4  5  2  0  0  0
  4 29  1  0  0  0
  5  6  1  0  0  0
  5  7  1  0  0  0
  7  8  1  0  0  0
  7 24  2  0  0  0
  8  9  2  0  0  0
  8 23  1  0  0  0
  9 10  1  0  0  0
 10 11  1  0  0  0
 11 12  1  0  0  0
 11 23  2  0  0  0
 12 16  1  0  0  0
 12 30  1  0  0  0
 12 44  1  0  0  0
 13 14  1  0  0  0
 13 31  1  0  0  0
 13 32  1  0  0  0
 13 44  1  0  0  0
 14 15  1  0  0  0
 14 33  1  0  0  0
 14 34  1  0  0  0
 15 16  1  0  0  0
 15 35  1  0  0  0
 15 36  1  0  0  0
 16 17  1  0  0  0
 16 37  1  0  0  0
 17 18  2  0  0  0
 17 22  1  0  0  0
 18 19  1  0  0  0
 18 38  1  0  0  0
 19 20  2  0  0  0
 19 39  1  0  0  0
 20 21  1  0  0  0
 20 40  1  0  0  0
 21 22  2  0  0  0
 21 41  1  0  0  0
 22 42  1  0  0  0
 24 43  1  0  0  0
 44 45  1  0  0  0
 44 46  1  0  0  0
M  CHG  1  44   1
M  END
> <energy>
98.6975

> <i_ionizer_Ion_state_n>
1

> <i_ionizer_Tot_Q>
1

> <s_ionizer_Ion_centers>
44

> <s_ionizer_Ion_types>
N5

> <s_ionizer_Ion_ctrs_in>
13

> <r_ionizer_Ionization_penalty>
0.000148807

> <r_ionizer_Ionization_penalty_charging>
0.000148807

> <r_ionizer_Ionization_penalty_neutral>
0

$$$$
ZINC001211870164
                    3D
 Schrodinger Suite 2019-4.
 46 49  0  0  1  0            999 V2000
    4.6357   -2.4596    2.1409 C   0  0  0  0  0  0
    4.2275   -1.2761    1.3155 C   0  0  0  0  0  0
    5.0195   -0.1235    1.3044 C   0  0  0  0  0  0
    4.6517    0.9787    0.5307 C   0  0  0  0  0  0
    3.4932    0.9391   -0.2518 C   0  0  0  0  0  0
    3.0832    2.3810   -1.1160 Cl  0  0  0  0  0  0
    2.6980   -0.2164   -0.2705 C   0  0  0  0  0  0
    1.4726   -0.3126   -1.0424 C   0  0  0  0  0  0
    1.3793   -0.0469   -2.3536 N   0  0  0  0  0  0
    0.0214   -0.1995   -2.6232 O   0  0  0  0  0  0
   -0.5673   -0.5768   -1.4511 C   0  0  0  0  0  0
   -2.0624   -0.7373   -1.4799 C   0  0  2  0  0  0
   -2.3511   -2.7890   -0.1521 C   0  0  0  0  0  0
   -3.1355   -2.0366    0.9170 C   0  0  0  0  0  0
   -2.6898   -0.5812    1.0064 C   0  0  0  0  0  0
   -2.7823    0.0946   -0.3758 C   0  0  1  0  0  0
   -2.3852    1.5679   -0.3851 C   0  0  0  0  0  0
   -1.3698    2.0801    0.4372 C   0  0  0  0  0  0
   -1.0048    3.4253    0.3730 C   0  0  0  0  0  0
   -1.6486    4.2810   -0.5154 C   0  0  0  0  0  0
   -2.6532    3.7892   -1.3448 C   0  0  0  0  0  0
   -3.0181    2.4431   -1.2832 C   0  0  0  0  0  0
    0.2914   -0.7251   -0.4656 N   0  0  0  0  0  0
    3.0734   -1.3167    0.5226 C   0  0  0  0  0  0
    5.5023   -2.9499    1.6872 H   0  0  0  0  0  0
    4.8916   -2.1452    3.1578 H   0  0  0  0  0  0
    3.8258   -3.1924    2.2168 H   0  0  0  0  0  0
    5.9246   -0.0733    1.9059 H   0  0  0  0  0  0
    5.2700    1.8740    0.5495 H   0  0  0  0  0  0
   -2.3998   -0.3399   -2.4477 H   0  0  0  0  0  0
   -1.2967   -2.8702    0.1353 H   0  0  0  0  0  0
   -2.7355   -3.8127   -0.2161 H   0  0  0  0  0  0
   -4.2081   -2.0763    0.6890 H   0  0  0  0  0  0
   -2.9973   -2.5234    1.8896 H   0  0  0  0  0  0
   -1.6683   -0.5564    1.4010 H   0  0  0  0  0  0
   -3.3192   -0.0471    1.7303 H   0  0  0  0  0  0
   -3.8560    0.0753   -0.6227 H   0  0  0  0  0  0
   -0.8262    1.4393    1.1271 H   0  0  0  0  0  0
   -0.2090    3.8001    1.0113 H   0  0  0  0  0  0
   -1.3620    5.3275   -0.5649 H   0  0  0  0  0  0
   -3.1497    4.4555   -2.0462 H   0  0  0  0  0  0
   -3.8007    2.0820   -1.9477 H   0  0  0  0  0  0
    2.4524   -2.2128    0.5186 H   0  0  0  0  0  0
   -2.4975   -2.1726   -1.4872 N   0  3  0  0  0  0
   -3.4831   -2.2213   -1.7709 H   0  0  0  0  0  0
   -1.9217   -2.6926   -2.1597 H   0  0  0  0  0  0
  1  2  1  0  0  0
  1 25  1  0  0  0
  1 26  1  0  0  0
  1 27  1  0  0  0
  2  3  2  0  0  0
  2 24  1  0  0  0
  3  4  1  0  0  0
  3 28  1  0  0  0
  4  5  2  0  0  0
  4 29  1  0  0  0
  5  6  1  0  0  0
  5  7  1  0  0  0
  7  8  1  0  0  0
  7 24  2  0  0  0
  8  9  2  0  0  0
  8 23  1  0  0  0
  9 10  1  0  0  0
 10 11  1  0  0  0
 11 12  1  0  0  0
 11 23  2  0  0  0
 12 16  1  0  0  0
 12 30  1  0  0  0
 12 44  1  0  0  0
 13 14  1  0  0  0
 13 31  1  0  0  0
 13 32  1  0  0  0
 13 44  1  0  0  0
 14 15  1  0  0  0
 14 33  1  0  0  0
 14 34  1  0  0  0
 15 16  1  0  0  0
 15 35  1  0  0  0
 15 36  1  0  0  0
 16 17  1  0  0  0
 16 37  1  0  0  0
 17 18  2  0  0  0
 17 22  1  0  0  0
 18 19  1  0  0  0
 18 38  1  0  0  0
 19 20  2  0  0  0
 19 39  1  0  0  0
 20 21  1  0  0  0
 20 40  1  0  0  0
 21 22  2  0  0  0
 21 41  1  0  0  0
 22 42  1  0  0  0
 24 43  1  0  0  0
 44 45  1  0  0  0
 44 46  1  0  0  0
M  CHG  1  44   1
M  END
> <energy>
92.4589

> <i_ionizer_Ion_state_n>
1

> <i_ionizer_Tot_Q>
1

> <s_ionizer_Ion_centers>
44

> <s_ionizer_Ion_types>
N5

> <s_ionizer_Ion_ctrs_in>
13

> <r_ionizer_Ionization_penalty>
0.000148807

> <r_ionizer_Ionization_penalty_charging>
0.000148807

> <r_ionizer_Ionization_penalty_neutral>
0

$$$$
ZINC001211870183
                    3D
 Schrodinger Suite 2019-4.
 46 49  0  0  1  0            999 V2000
   -3.2802   -0.0735    2.2083 C   0  0  0  0  0  0
   -4.0200   -0.1998    0.9014 C   0  0  0  0  0  0
   -5.3439    0.2752    0.8365 C   0  0  0  0  0  0
   -6.0766    0.1832   -0.3462 C   0  0  0  0  0  0
   -7.6848    0.7926   -0.4064 Cl  0  0  0  0  0  0
   -5.5141   -0.3955   -1.4777 C   0  0  0  0  0  0
   -4.2001   -0.8672   -1.4303 C   0  0  0  0  0  0
   -3.4320   -0.7621   -0.2541 C   0  0  0  0  0  0
   -2.0420   -1.2121   -0.2832 C   0  0  0  0  0  0
   -1.6044   -2.2425   -1.0261 N   0  0  0  0  0  0
   -0.2296   -2.2636   -0.7850 O   0  0  0  0  0  0
    0.0284   -1.2319    0.0679 C   0  0  0  0  0  0
    1.4653   -0.9567    0.4297 C   0  0  2  0  0  0
    3.0978   -2.7667    0.0554 C   0  0  0  0  0  0
    4.1345   -1.7394   -0.3628 C   0  0  0  0  0  0
    3.4939   -0.6943   -1.2581 C   0  0  0  0  0  0
    2.1430   -0.1574   -0.7372 C   0  0  2  0  0  0
    2.2074    1.3228   -0.3673 C   0  0  0  0  0  0
    3.2078    1.8382    0.4701 C   0  0  0  0  0  0
    3.2093    3.1910    0.8233 C   0  0  0  0  0  0
    2.2097    4.0401    0.3537 C   0  0  0  0  0  0
    1.2008    3.5373   -0.4625 C   0  0  0  0  0  0
    1.1973    2.1878   -0.8195 C   0  0  0  0  0  0
   -1.0491   -0.5577    0.4044 N   0  0  0  0  0  0
   -2.5340    0.7238    2.1470 H   0  0  0  0  0  0
   -2.7965   -1.0192    2.4727 H   0  0  0  0  0  0
   -3.9605    0.1720    3.0311 H   0  0  0  0  0  0
   -5.8050    0.7191    1.7155 H   0  0  0  0  0  0
   -6.0842   -0.4742   -2.3994 H   0  0  0  0  0  0
   -3.7710   -1.3068   -2.3304 H   0  0  0  0  0  0
    1.3926   -0.2933    1.3042 H   0  0  0  0  0  0
    2.5893   -3.1910   -0.8186 H   0  0  0  0  0  0
    3.5879   -3.5988    0.5725 H   0  0  0  0  0  0
    4.5857   -1.2620    0.5154 H   0  0  0  0  0  0
    4.9478   -2.2340   -0.9042 H   0  0  0  0  0  0
    4.2116    0.1058   -1.4746 H   0  0  0  0  0  0
    3.3086   -1.1733   -2.2311 H   0  0  0  0  0  0
    1.4885   -0.2139   -1.6229 H   0  0  0  0  0  0
    3.9933    1.1982    0.8639 H   0  0  0  0  0  0
    3.9868    3.5833    1.4738 H   0  0  0  0  0  0
    2.2122    5.0920    0.6257 H   0  0  0  0  0  0
    0.4076    4.1910   -0.8169 H   0  0  0  0  0  0
    0.3876    1.8136   -1.4434 H   0  0  0  0  0  0
    2.1242   -2.1799    0.9906 N   0  3  0  0  0  0
    2.6114   -1.9249    1.8576 H   0  0  0  0  0  0
    1.4016   -2.8795    1.1971 H   0  0  0  0  0  0
  1  2  1  0  0  0
  1 25  1  0  0  0
  1 26  1  0  0  0
  1 27  1  0  0  0
  2  3  2  0  0  0
  2  8  1  0  0  0
  3  4  1  0  0  0
  3 28  1  0  0  0
  4  5  1  0  0  0
  4  6  2  0  0  0
  6  7  1  0  0  0
  6 29  1  0  0  0
  7  8  2  0  0  0
  7 30  1  0  0  0
  8  9  1  0  0  0
  9 10  2  0  0  0
  9 24  1  0  0  0
 10 11  1  0  0  0
 11 12  1  0  0  0
 12 13  1  0  0  0
 12 24  2  0  0  0
 13 17  1  0  0  0
 13 31  1  0  0  0
 13 44  1  0  0  0
 14 15  1  0  0  0
 14 32  1  0  0  0
 14 33  1  0  0  0
 14 44  1  0  0  0
 15 16  1  0  0  0
 15 34  1  0  0  0
 15 35  1  0  0  0
 16 17  1  0  0  0
 16 36  1  0  0  0
 16 37  1  0  0  0
 17 18  1  0  0  0
 17 38  1  0  0  0
 18 19  2  0  0  0
 18 23  1  0  0  0
 19 20  1  0  0  0
 19 39  1  0  0  0
 20 21  2  0  0  0
 20 40  1  0  0  0
 21 22  1  0  0  0
 21 41  1  0  0  0
 22 23  2  0  0  0
 22 42  1  0  0  0
 23 43  1  0  0  0
 44 45  1  0  0  0
 44 46  1  0  0  0
M  CHG  1  44   1
M  END
> <energy>
105.702

> <i_ionizer_Ion_state_n>
1

> <i_ionizer_Tot_Q>
1

> <s_ionizer_Ion_centers>
44

> <s_ionizer_Ion_types>
N5

> <s_ionizer_Ion_ctrs_in>
14

> <r_ionizer_Ionization_penalty>
0.000148807

> <r_ionizer_Ionization_penalty_charging>
0.000148807

> <r_ionizer_Ionization_penalty_neutral>
0

$$$$
ZINC001211870184
                    3D
 Schrodinger Suite 2019-4.
 46 49  0  0  1  0            999 V2000
   -2.3846    1.7027    0.8616 C   0  0  0  0  0  0
   -3.4048    1.2343   -0.1436 C   0  0  0  0  0  0
   -4.6259    1.9351   -0.2188 C   0  0  0  0  0  0
   -5.6125    1.5596   -1.1285 C   0  0  0  0  0  0
   -7.0900    2.4380   -1.2015 Cl  0  0  0  0  0  0
   -5.4071    0.4811   -1.9774 C   0  0  0  0  0  0
   -4.2045   -0.2279   -1.9119 C   0  0  0  0  0  0
   -3.1894    0.1268   -0.9976 C   0  0  0  0  0  0
   -1.9593   -0.6729   -0.9738 C   0  0  0  0  0  0
   -1.5631   -1.4529   -1.9966 N   0  0  0  0  0  0
   -0.3824   -2.0325   -1.5422 O   0  0  0  0  0  0
   -0.1740   -1.5512   -0.2840 C   0  0  0  0  0  0
    1.0633   -2.0291    0.4211 C   0  0  1  0  0  0
    2.1055   -2.4114    2.5955 C   0  0  0  0  0  0
    3.3849   -1.7006    2.1684 C   0  0  0  0  0  0
    3.5922   -1.7725    0.6574 C   0  0  0  0  0  0
    2.3472   -1.3571   -0.1528 C   0  0  2  0  0  0
    2.2972    0.1510   -0.3918 C   0  0  0  0  0  0
    2.0221    1.0843    0.6165 C   0  0  0  0  0  0
    1.9756    2.4526    0.3339 C   0  0  0  0  0  0
    2.2060    2.9122   -0.9596 C   0  0  0  0  0  0
    2.4893    2.0035   -1.9726 C   0  0  0  0  0  0
    2.5367    0.6366   -1.6908 C   0  0  0  0  0  0
   -1.1123   -0.7186    0.1113 N   0  0  0  0  0  0
   -2.6807    2.6529    1.3192 H   0  0  0  0  0  0
   -2.2811    0.9716    1.6690 H   0  0  0  0  0  0
   -1.4170    1.8745    0.3807 H   0  0  0  0  0  0
   -4.8071    2.7840    0.4372 H   0  0  0  0  0  0
   -6.1723    0.1819   -2.6887 H   0  0  0  0  0  0
   -4.0677   -1.0759   -2.5820 H   0  0  0  0  0  0
    1.1409   -3.1042    0.2025 H   0  0  0  0  0  0
    1.9558   -2.2714    3.6722 H   0  0  0  0  0  0
    2.2092   -3.4916    2.4378 H   0  0  0  0  0  0
    3.3689   -0.6586    2.5038 H   0  0  0  0  0  0
    4.2412   -2.1678    2.6697 H   0  0  0  0  0  0
    4.4692   -1.1778    0.3732 H   0  0  0  0  0  0
    3.8299   -2.8147    0.4031 H   0  0  0  0  0  0
    2.4891   -1.8080   -1.1475 H   0  0  0  0  0  0
    1.8356    0.7758    1.6386 H   0  0  0  0  0  0
    1.7559    3.1620    1.1272 H   0  0  0  0  0  0
    2.1651    3.9754   -1.1775 H   0  0  0  0  0  0
    2.6706    2.3553   -2.9850 H   0  0  0  0  0  0
    2.7592   -0.0490   -2.5059 H   0  0  0  0  0  0
    0.9051   -1.9272    1.9004 N   0  3  0  0  0  0
    0.7443   -0.9452    2.1537 H   0  0  0  0  0  0
    0.0986   -2.4922    2.1912 H   0  0  0  0  0  0
  1  2  1  0  0  0
  1 25  1  0  0  0
  1 26  1  0  0  0
  1 27  1  0  0  0
  2  3  2  0  0  0
  2  8  1  0  0  0
  3  4  1  0  0  0
  3 28  1  0  0  0
  4  5  1  0  0  0
  4  6  2  0  0  0
  6  7  1  0  0  0
  6 29  1  0  0  0
  7  8  2  0  0  0
  7 30  1  0  0  0
  8  9  1  0  0  0
  9 10  2  0  0  0
  9 24  1  0  0  0
 10 11  1  0  0  0
 11 12  1  0  0  0
 12 13  1  0  0  0
 12 24  2  0  0  0
 13 17  1  0  0  0
 13 31  1  0  0  0
 13 44  1  0  0  0
 14 15  1  0  0  0
 14 32  1  0  0  0
 14 33  1  0  0  0
 14 44  1  0  0  0
 15 16  1  0  0  0
 15 34  1  0  0  0
 15 35  1  0  0  0
 16 17  1  0  0  0
 16 36  1  0  0  0
 16 37  1  0  0  0
 17 18  1  0  0  0
 17 38  1  0  0  0
 18 19  2  0  0  0
 18 23  1  0  0  0
 19 20  1  0  0  0
 19 39  1  0  0  0
 20 21  2  0  0  0
 20 40  1  0  0  0
 21 22  1  0  0  0
 21 41  1  0  0  0
 22 23  2  0  0  0
 22 42  1  0  0  0
 23 43  1  0  0  0
 44 45  1  0  0  0
 44 46  1  0  0  0
M  CHG  1  44   1
M  END
> <energy>
97.5033

> <i_ionizer_Ion_state_n>
1

> <i_ionizer_Tot_Q>
1

> <s_ionizer_Ion_centers>
44

> <s_ionizer_Ion_types>
N5

> <s_ionizer_Ion_ctrs_in>
14

> <r_ionizer_Ionization_penalty>
0.000148807

> <r_ionizer_Ionization_penalty_charging>
0.000148807

> <r_ionizer_Ionization_penalty_neutral>
0

$$$$
