ZINC001258430991
                    3D
 Structure written by MMmdl.
 44 44  0  0  1  0            999 V2000
   -4.5288   -0.3207    0.1068 C   0  0  0  0  0  0
   -3.0381   -0.5231   -0.1068 C   0  0  0  0  0  0
   -2.7861   -1.7913   -0.9236 C   0  0  0  0  0  0
   -1.3143   -1.9773   -1.2914 C   0  0  0  0  0  0
   -0.4437   -2.4319   -0.1081 C   0  0  0  0  0  0
    0.9764   -1.8226   -0.1292 C   0  0  2  0  0  0
    1.8567   -2.5588    0.8993 C   0  0  0  0  0  0
    3.3214   -2.1436    0.8744 C   0  0  0  0  0  0
    1.6720    0.4986   -0.6086 C   0  0  0  0  0  0
    1.1569    1.9302   -0.5832 C   0  0  0  0  0  0
    0.5093    2.3354   -1.7101 N   0  0  0  0  0  0
   -0.0268    3.5715   -1.7237 C   0  0  0  0  0  0
    0.0420    4.4483   -0.6601 C   0  0  0  0  0  0
    0.7167    4.0384    0.4832 C   0  0  0  0  0  0
    1.3018    2.7665    0.5367 C   0  0  0  0  0  0
    2.0432    2.3531    1.7729 C   0  0  0  0  0  0
   -4.7104    0.5722    0.7136 H   0  0  0  0  0  0
   -4.9696   -1.1775    0.6230 H   0  0  0  0  0  0
   -5.0413   -0.1984   -0.8524 H   0  0  0  0  0  0
   -2.5389   -0.5787    0.8674 H   0  0  0  0  0  0
   -2.6266    0.3485   -0.6300 H   0  0  0  0  0  0
   -3.1517   -2.6692   -0.3794 H   0  0  0  0  0  0
   -3.3679   -1.7326   -1.8533 H   0  0  0  0  0  0
   -1.2563   -2.7503   -2.0694 H   0  0  0  0  0  0
   -0.9370   -1.0590   -1.7534 H   0  0  0  0  0  0
   -0.9260   -2.2039    0.8497 H   0  0  0  0  0  0
   -0.3758   -3.5270   -0.1485 H   0  0  0  0  0  0
    1.3958   -1.9793   -1.1314 H   0  0  0  0  0  0
    1.4595   -2.4183    1.9144 H   0  0  0  0  0  0
    1.8080   -3.6375    0.6981 H   0  0  0  0  0  0
    3.7165   -2.1577   -0.1467 H   0  0  0  0  0  0
    3.9182   -2.8395    1.4774 H   0  0  0  0  0  0
    3.4596   -1.1453    1.2978 H   0  0  0  0  0  0
    1.6811    0.1787   -1.6599 H   0  0  0  0  0  0
    2.7122    0.4723   -0.2678 H   0  0  0  0  0  0
   -0.5344    3.8451   -2.6432 H   0  0  0  0  0  0
   -0.4170    5.4270   -0.7158 H   0  0  0  0  0  0
    0.7695    4.7081    1.3380 H   0  0  0  0  0  0
    2.1764    3.1977    2.4568 H   0  0  0  0  0  0
    1.4960    1.5759    2.3132 H   0  0  0  0  0  0
    3.0454    1.9972    1.5201 H   0  0  0  0  0  0
    0.8006   -0.3870    0.2069 N   0  3  0  0  0  0
   -0.1791   -0.1277    0.0420 H   0  0  0  0  0  0
    1.0284   -0.2507    1.1988 H   0  0  0  0  0  0
  1  2  1  0  0  0
  1 17  1  0  0  0
  1 18  1  0  0  0
  1 19  1  0  0  0
  2  3  1  0  0  0
  2 20  1  0  0  0
  2 21  1  0  0  0
  3  4  1  0  0  0
  3 22  1  0  0  0
  3 23  1  0  0  0
  4  5  1  0  0  0
  4 24  1  0  0  0
  4 25  1  0  0  0
  5  6  1  0  0  0
  5 26  1  0  0  0
  5 27  1  0  0  0
  6  7  1  0  0  0
  6 28  1  0  0  0
  6 42  1  0  0  0
  7  8  1  0  0  0
  7 29  1  0  0  0
  7 30  1  0  0  0
  8 31  1  0  0  0
  8 32  1  0  0  0
  8 33  1  0  0  0
  9 10  1  0  0  0
  9 34  1  0  0  0
  9 35  1  0  0  0
  9 42  1  0  0  0
 10 11  2  0  0  0
 10 15  1  0  0  0
 11 12  1  0  0  0
 12 13  2  0  0  0
 12 36  1  0  0  0
 13 14  1  0  0  0
 13 37  1  0  0  0
 14 15  2  0  0  0
 14 38  1  0  0  0
 15 16  1  0  0  0
 16 39  1  0  0  0
 16 40  1  0  0  0
 16 41  1  0  0  0
 42 43  1  0  0  0
 42 44  1  0  0  0
M  CHG  1  42   1
M  END
> <energy>
44.9639

> <chiral flag>
0

> <version>
0

> <i_ionizer_Ion_state_n>
1

> <i_ionizer_Tot_Q>
1

> <s_ionizer_Ion_centers>
42

> <s_ionizer_Ion_types>
N5

> <s_ionizer_Ion_ctrs_in>
9

> <r_ionizer_Ionization_penalty>
0.0075612

> <r_ionizer_Ionization_penalty_charging>
0.000148807

> <r_ionizer_Ionization_penalty_neutral>
0.00741239

$$$$
ZINC001258431049
                    3D
 Structure written by MMmdl.
 44 44  0  0  1  0            999 V2000
   -4.1612    0.8929    2.3962 C   0  0  0  0  0  0
   -4.1372    0.4232    0.9489 C   0  0  0  0  0  0
   -2.8659   -0.3787    0.6499 C   0  0  0  0  0  0
   -2.8390   -0.8994   -0.7936 C   0  0  0  0  0  0
   -1.6307   -1.7809   -1.1791 C   0  0  0  0  0  0
   -0.1830   -1.2446   -1.0102 C   0  0  1  0  0  0
    0.2039   -0.1421   -2.0195 C   0  0  0  0  0  0
   -0.5369    1.1853   -1.9680 C   0  0  0  0  0  0
    1.0133   -0.0484    0.8836 C   0  0  0  0  0  0
    2.4705   -0.2331    0.5071 C   0  0  0  0  0  0
    2.8922   -1.5205    0.3469 N   0  0  0  0  0  0
    4.1982   -1.7163    0.0726 C   0  0  0  0  0  0
    5.1256   -0.6936   -0.0556 C   0  0  0  0  0  0
    4.6893    0.6161    0.1121 C   0  0  0  0  0  0
    3.3487    0.8630    0.4363 C   0  0  0  0  0  0
    2.9007    2.2685    0.7225 C   0  0  0  0  0  0
   -3.2784    1.4966    2.6389 H   0  0  0  0  0  0
   -5.0450    1.5134    2.5774 H   0  0  0  0  0  0
   -4.1968    0.0403    3.0815 H   0  0  0  0  0  0
   -4.1961    1.2980    0.2900 H   0  0  0  0  0  0
   -5.0232   -0.1914    0.7569 H   0  0  0  0  0  0
   -2.7935   -1.2196    1.3537 H   0  0  0  0  0  0
   -2.0095    0.2794    0.8245 H   0  0  0  0  0  0
   -3.7431   -1.5048   -0.9538 H   0  0  0  0  0  0
   -2.9289   -0.0625   -1.4894 H   0  0  0  0  0  0
   -1.7623   -2.0597   -2.2357 H   0  0  0  0  0  0
   -1.7101   -2.7211   -0.6100 H   0  0  0  0  0  0
    0.4625   -2.0868   -1.3056 H   0  0  0  0  0  0
    1.2785    0.0583   -1.9337 H   0  0  0  0  0  0
    0.0909   -0.5495   -3.0337 H   0  0  0  0  0  0
   -1.4917    1.1413   -2.5032 H   0  0  0  0  0  0
    0.0627    1.9502   -2.4769 H   0  0  0  0  0  0
   -0.7270    1.5301   -0.9508 H   0  0  0  0  0  0
    0.9768   -0.0567    1.9807 H   0  0  0  0  0  0
    0.6524    0.9358    0.5849 H   0  0  0  0  0  0
    4.4937   -2.7585   -0.0392 H   0  0  0  0  0  0
    6.1667   -0.9134   -0.2695 H   0  0  0  0  0  0
    5.4032    1.4317    0.0258 H   0  0  0  0  0  0
    3.7477    2.9604    0.7252 H   0  0  0  0  0  0
    2.1834    2.6129   -0.0275 H   0  0  0  0  0  0
    2.4389    2.3206    1.7148 H   0  0  0  0  0  0
    0.0333   -1.1118    0.4775 N   0  3  0  0  0  0
   -0.8708   -0.8947    0.9129 H   0  0  0  0  0  0
    0.3761   -2.0127    0.8313 H   0  0  0  0  0  0
  1  2  1  0  0  0
  1 17  1  0  0  0
  1 18  1  0  0  0
  1 19  1  0  0  0
  2  3  1  0  0  0
  2 20  1  0  0  0
  2 21  1  0  0  0
  3  4  1  0  0  0
  3 22  1  0  0  0
  3 23  1  0  0  0
  4  5  1  0  0  0
  4 24  1  0  0  0
  4 25  1  0  0  0
  5  6  1  0  0  0
  5 26  1  0  0  0
  5 27  1  0  0  0
  6  7  1  0  0  0
  6 28  1  0  0  0
  6 42  1  0  0  0
  7  8  1  0  0  0
  7 29  1  0  0  0
  7 30  1  0  0  0
  8 31  1  0  0  0
  8 32  1  0  0  0
  8 33  1  0  0  0
  9 10  1  0  0  0
  9 34  1  0  0  0
  9 35  1  0  0  0
  9 42  1  0  0  0
 10 11  2  0  0  0
 10 15  1  0  0  0
 11 12  1  0  0  0
 12 13  2  0  0  0
 12 36  1  0  0  0
 13 14  1  0  0  0
 13 37  1  0  0  0
 14 15  2  0  0  0
 14 38  1  0  0  0
 15 16  1  0  0  0
 16 39  1  0  0  0
 16 40  1  0  0  0
 16 41  1  0  0  0
 42 43  1  0  0  0
 42 44  1  0  0  0
M  CHG  1  42   1
M  END
> <energy>
49.1556

> <chiral flag>
0

> <version>
0

> <i_ionizer_Ion_state_n>
1

> <i_ionizer_Tot_Q>
1

> <s_ionizer_Ion_centers>
42

> <s_ionizer_Ion_types>
N5

> <s_ionizer_Ion_ctrs_in>
9

> <r_ionizer_Ionization_penalty>
0.0075612

> <r_ionizer_Ionization_penalty_charging>
0.000148807

> <r_ionizer_Ionization_penalty_neutral>
0.00741239

$$$$
ZINC001258431050
                    3D
 Structure written by MMmdl.
 49 49  0  0  1  0            999 V2000
   -4.5740   -2.0731    0.0982 C   0  0  0  0  0  0
   -4.6398   -0.5533   -0.0400 C   0  0  0  0  0  0
   -3.7215   -0.0184   -1.1459 C   0  0  0  0  0  0
   -2.2421    0.0311   -0.7392 C   0  0  0  0  0  0
   -1.8363    1.3992   -0.1743 C   0  0  0  0  0  0
   -0.3334    1.4849    0.1963 C   0  0  1  0  0  0
    0.0715    2.9472    0.5033 C   0  0  0  0  0  0
    0.1139    3.8352   -0.7326 C   0  0  0  0  0  0
    1.1385   -0.1580    1.4093 C   0  0  1  0  0  0
    0.9688   -1.4616    0.6081 C   0  0  0  0  0  0
    1.7967   -1.4813   -0.6684 C   0  0  0  0  0  0
    3.3019   -1.3288   -0.3877 C   0  0  1  0  0  0
    3.9751   -2.6957   -0.2158 C   0  0  0  0  0  0
    3.8901   -0.7161   -1.5412 O   0  0  0  0  0  0
    3.5934   -0.4211    0.8309 C   0  0  0  0  0  0
    2.4577    0.5762    1.0922 C   0  0  0  0  0  0
   -5.3282   -2.4180    0.8151 H   0  0  0  0  0  0
   -3.5956   -2.4067    0.4580 H   0  0  0  0  0  0
   -4.7706   -2.5665   -0.8601 H   0  0  0  0  0  0
   -5.6736   -0.2787   -0.2856 H   0  0  0  0  0  0
   -4.4058   -0.0802    0.9214 H   0  0  0  0  0  0
   -4.0636    0.9811   -1.4442 H   0  0  0  0  0  0
   -3.8239   -0.6537   -2.0342 H   0  0  0  0  0  0
   -1.6270   -0.1641   -1.6283 H   0  0  0  0  0  0
   -2.0206   -0.7594   -0.0187 H   0  0  0  0  0  0
   -2.4555    1.6453    0.6956 H   0  0  0  0  0  0
   -2.0718    2.1534   -0.9292 H   0  0  0  0  0  0
    0.2414    1.1250   -0.6641 H   0  0  0  0  0  0
    1.0670    2.9798    0.9613 H   0  0  0  0  0  0
   -0.6131    3.3838    1.2398 H   0  0  0  0  0  0
    0.7923    3.4194   -1.4849 H   0  0  0  0  0  0
   -0.8753    3.9514   -1.1859 H   0  0  0  0  0  0
    0.4792    4.8316   -0.4650 H   0  0  0  0  0  0
    1.2204   -0.4826    2.4564 H   0  0  0  0  0  0
   -0.0808   -1.6479    0.3680 H   0  0  0  0  0  0
    1.2643   -2.3084    1.2410 H   0  0  0  0  0  0
    1.6007   -2.4131   -1.2165 H   0  0  0  0  0  0
    1.4546   -0.6786   -1.3342 H   0  0  0  0  0  0
    3.6099   -3.2261    0.6702 H   0  0  0  0  0  0
    3.7914   -3.3353   -1.0874 H   0  0  0  0  0  0
    5.0646   -2.5926   -0.1400 H   0  0  0  0  0  0
    3.7025   -1.2884   -2.3066 H   0  0  0  0  0  0
    4.5272    0.1385    0.6724 H   0  0  0  0  0  0
    3.7316   -1.0251    1.7365 H   0  0  0  0  0  0
    2.7260    1.2273    1.9352 H   0  0  0  0  0  0
    2.3695    1.2171    0.2117 H   0  0  0  0  0  0
   -0.1255    0.6563    1.4330 N   0  3  0  0  0  0
   -0.0903    1.2861    2.2431 H   0  0  0  0  0  0
   -0.9219    0.0159    1.5317 H   0  0  0  0  0  0
  1  2  1  0  0  0
  1 17  1  0  0  0
  1 18  1  0  0  0
  1 19  1  0  0  0
  2  3  1  0  0  0
  2 20  1  0  0  0
  2 21  1  0  0  0
  3  4  1  0  0  0
  3 22  1  0  0  0
  3 23  1  0  0  0
  4  5  1  0  0  0
  4 24  1  0  0  0
  4 25  1  0  0  0
  5  6  1  0  0  0
  5 26  1  0  0  0
  5 27  1  0  0  0
  6  7  1  0  0  0
  6 28  1  0  0  0
  6 47  1  0  0  0
  7  8  1  0  0  0
  7 29  1  0  0  0
  7 30  1  0  0  0
  8 31  1  0  0  0
  8 32  1  0  0  0
  8 33  1  0  0  0
  9 10  1  0  0  0
  9 16  1  0  0  0
  9 34  1  0  0  0
  9 47  1  0  0  0
 10 11  1  0  0  0
 10 35  1  0  0  0
 10 36  1  0  0  0
 11 12  1  0  0  0
 11 37  1  0  0  0
 11 38  1  0  0  0
 12 13  1  0  0  0
 12 14  1  0  0  0
 12 15  1  0  0  0
 13 39  1  0  0  0
 13 40  1  0  0  0
 13 41  1  0  0  0
 14 42  1  0  0  0
 15 16  1  0  0  0
 15 43  1  0  0  0
 15 44  1  0  0  0
 16 45  1  0  0  0
 16 46  1  0  0  0
 47 48  1  0  0  0
 47 49  1  0  0  0
M  CHG  1  47   1
M  END
> <energy>
25.7016

> <chiral flag>
0

> <version>
0

> <i_ionizer_Ion_state_n>
1

> <i_ionizer_Tot_Q>
1

> <s_ionizer_Ion_centers>
47

> <s_ionizer_Ion_types>
N5

> <s_ionizer_Ion_ctrs_in>
9

> <r_ionizer_Ionization_penalty>
0.000148807

> <r_ionizer_Ionization_penalty_charging>
0.000148807

> <r_ionizer_Ionization_penalty_neutral>
0

$$$$
ZINC001258431051
                    3D
 Structure written by MMmdl.
 49 49  0  0  1  0            999 V2000
   -4.7091    1.1609   -0.0210 C   0  0  0  0  0  0
   -4.0238   -0.1421    0.3684 C   0  0  0  0  0  0
   -3.0866   -0.6269   -0.7415 C   0  0  0  0  0  0
   -2.5321   -2.0305   -0.5016 C   0  0  0  0  0  0
   -1.5615   -2.2076    0.6739 C   0  0  0  0  0  0
   -0.0749   -1.8714    0.3621 C   0  0  2  0  0  0
    0.8768   -2.8260    1.1270 C   0  0  0  0  0  0
    0.7525   -4.2903    0.7122 C   0  0  0  0  0  0
    1.5046    0.0887    0.5540 C   0  0  1  0  0  0
    2.0053    0.1527   -0.9027 C   0  0  0  0  0  0
    1.8547    1.5440   -1.5160 C   0  0  0  0  0  0
    2.6926    2.5825   -0.7458 C   0  0  2  0  0  0
    2.2123    4.0009   -1.0725 C   0  0  0  0  0  0
    4.0439    2.4800   -1.2160 O   0  0  0  0  0  0
    2.7052    2.3191    0.7742 C   0  0  0  0  0  0
    1.5089    1.4841    1.2201 C   0  0  0  0  0  0
   -3.9741    1.9581   -0.1730 H   0  0  0  0  0  0
   -5.2848    1.0423   -0.9456 H   0  0  0  0  0  0
   -5.4023    1.4775    0.7658 H   0  0  0  0  0  0
   -4.7910   -0.8974    0.5712 H   0  0  0  0  0  0
   -3.4670    0.0172    1.2981 H   0  0  0  0  0  0
   -2.2771    0.0922   -0.8932 H   0  0  0  0  0  0
   -3.6501   -0.6506   -1.6840 H   0  0  0  0  0  0
   -2.0553   -2.3847   -1.4235 H   0  0  0  0  0  0
   -3.3844   -2.7033   -0.3395 H   0  0  0  0  0  0
   -1.9060   -1.6526    1.5541 H   0  0  0  0  0  0
   -1.6466   -3.2576    0.9667 H   0  0  0  0  0  0
    0.0949   -2.0139   -0.7113 H   0  0  0  0  0  0
    0.7096   -2.7382    2.2073 H   0  0  0  0  0  0
    1.9180   -2.5505    0.9346 H   0  0  0  0  0  0
    0.8613   -4.3992   -0.3720 H   0  0  0  0  0  0
   -0.1986   -4.7380    1.0091 H   0  0  0  0  0  0
    1.5423   -4.8806    1.1891 H   0  0  0  0  0  0
    2.2100   -0.5224    1.1293 H   0  0  0  0  0  0
    3.0681   -0.1246   -0.9154 H   0  0  0  0  0  0
    1.5098   -0.5858   -1.5411 H   0  0  0  0  0  0
    2.1778    1.5031   -2.5621 H   0  0  0  0  0  0
    0.7936    1.8171   -1.5159 H   0  0  0  0  0  0
    1.1887    4.1755   -0.7236 H   0  0  0  0  0  0
    2.2507    4.1857   -2.1525 H   0  0  0  0  0  0
    2.8673    4.7509   -0.6116 H   0  0  0  0  0  0
    4.5822    3.1194   -0.7172 H   0  0  0  0  0  0
    2.7124    3.2659    1.3276 H   0  0  0  0  0  0
    3.6274    1.7992    1.0625 H   0  0  0  0  0  0
    1.5282    1.3650    2.3115 H   0  0  0  0  0  0
    0.5907    2.0368    0.9852 H   0  0  0  0  0  0
    0.1006   -0.4178    0.7252 N   0  3  0  0  0  0
   -0.5196    0.1416    0.1279 H   0  0  0  0  0  0
   -0.1692   -0.2954    1.7083 H   0  0  0  0  0  0
  1  2  1  0  0  0
  1 17  1  0  0  0
  1 18  1  0  0  0
  1 19  1  0  0  0
  2  3  1  0  0  0
  2 20  1  0  0  0
  2 21  1  0  0  0
  3  4  1  0  0  0
  3 22  1  0  0  0
  3 23  1  0  0  0
  4  5  1  0  0  0
  4 24  1  0  0  0
  4 25  1  0  0  0
  5  6  1  0  0  0
  5 26  1  0  0  0
  5 27  1  0  0  0
  6  7  1  0  0  0
  6 28  1  0  0  0
  6 47  1  0  0  0
  7  8  1  0  0  0
  7 29  1  0  0  0
  7 30  1  0  0  0
  8 31  1  0  0  0
  8 32  1  0  0  0
  8 33  1  0  0  0
  9 10  1  0  0  0
  9 16  1  0  0  0
  9 34  1  0  0  0
  9 47  1  0  0  0
 10 11  1  0  0  0
 10 35  1  0  0  0
 10 36  1  0  0  0
 11 12  1  0  0  0
 11 37  1  0  0  0
 11 38  1  0  0  0
 12 13  1  0  0  0
 12 14  1  0  0  0
 12 15  1  0  0  0
 13 39  1  0  0  0
 13 40  1  0  0  0
 13 41  1  0  0  0
 14 42  1  0  0  0
 15 16  1  0  0  0
 15 43  1  0  0  0
 15 44  1  0  0  0
 16 45  1  0  0  0
 16 46  1  0  0  0
 47 48  1  0  0  0
 47 49  1  0  0  0
M  CHG  1  47   1
M  END
> <energy>
25.0084

> <chiral flag>
0

> <version>
0

> <i_ionizer_Ion_state_n>
1

> <i_ionizer_Tot_Q>
1

> <s_ionizer_Ion_centers>
47

> <s_ionizer_Ion_types>
N5

> <s_ionizer_Ion_ctrs_in>
9

> <r_ionizer_Ionization_penalty>
0.000148807

> <r_ionizer_Ionization_penalty_charging>
0.000148807

> <r_ionizer_Ionization_penalty_neutral>
0

$$$$
ZINC001258431052
                    3D
 Structure written by MMmdl.
 49 49  0  0  1  0            999 V2000
    3.5368   -2.2951    0.9987 C   0  0  0  0  0  0
    2.1442   -2.9011    0.9843 C   0  0  0  0  0  0
    1.2390   -2.2410    2.0224 C   0  0  0  0  0  0
   -0.2392   -2.6315    1.8804 C   0  0  0  0  0  0
   -1.0924   -1.5995    1.1198 C   0  0  0  0  0  0
   -0.8838   -1.5410   -0.4154 C   0  0  1  0  0  0
   -1.5513   -2.7808   -1.0692 C   0  0  0  0  0  0
   -1.2896   -2.9345   -2.5638 C   0  0  0  0  0  0
   -1.0192    0.9725   -0.4923 C   0  0  1  0  0  0
    0.4961    1.1844   -0.3818 C   0  0  0  0  0  0
    0.8469    2.5146    0.3102 C   0  0  0  0  0  0
   -0.2273    3.6056    0.1677 C   0  0  2  0  0  0
    0.3929    4.9964    0.3218 C   0  0  0  0  0  0
   -1.1686    3.4396    1.2342 O   0  0  0  0  0  0
   -0.9654    3.4690   -1.1690 C   0  0  0  0  0  0
   -1.6237    2.0934   -1.3702 C   0  0  0  0  0  0
    3.5012   -1.2267    0.7701 H   0  0  0  0  0  0
    4.0150   -2.4208    1.9733 H   0  0  0  0  0  0
    4.1691   -2.7773    0.2486 H   0  0  0  0  0  0
    2.2152   -3.9749    1.1912 H   0  0  0  0  0  0
    1.7330   -2.8026   -0.0211 H   0  0  0  0  0  0
    1.3460   -1.1518    1.9955 H   0  0  0  0  0  0
    1.5863   -2.5557    3.0166 H   0  0  0  0  0  0
   -0.3435   -3.6354    1.4616 H   0  0  0  0  0  0
   -0.6543   -2.6890    2.8952 H   0  0  0  0  0  0
   -0.8940   -0.6302    1.5845 H   0  0  0  0  0  0
   -2.1499   -1.8123    1.3225 H   0  0  0  0  0  0
    0.1821   -1.5638   -0.6498 H   0  0  0  0  0  0
   -1.1998   -3.6941   -0.5770 H   0  0  0  0  0  0
   -2.6384   -2.7426   -0.9123 H   0  0  0  0  0  0
   -1.7689   -2.1367   -3.1400 H   0  0  0  0  0  0
   -1.7046   -3.8855   -2.9205 H   0  0  0  0  0  0
   -0.2166   -2.9295   -2.7822 H   0  0  0  0  0  0
   -1.4658    1.0695    0.5009 H   0  0  0  0  0  0
    0.9421    1.1738   -1.3858 H   0  0  0  0  0  0
    0.9838    0.3799    0.1778 H   0  0  0  0  0  0
    1.0145    2.3117    1.3748 H   0  0  0  0  0  0
    1.8062    2.8581   -0.0941 H   0  0  0  0  0  0
   -0.3749    5.7768    0.2722 H   0  0  0  0  0  0
    1.1353    5.1982   -0.4560 H   0  0  0  0  0  0
    0.8753    5.0993    1.3008 H   0  0  0  0  0  0
   -1.7887    4.1849    1.2069 H   0  0  0  0  0  0
   -0.2573    3.6474   -1.9912 H   0  0  0  0  0  0
   -1.7445    4.2359   -1.2579 H   0  0  0  0  0  0
   -1.5381    1.8439   -2.4376 H   0  0  0  0  0  0
   -2.6990    2.1670   -1.1630 H   0  0  0  0  0  0
   -1.4786   -0.3285   -1.0863 N   0  3  0  0  0  0
   -1.2142   -0.3437   -2.0783 H   0  0  0  0  0  0
   -2.5007   -0.3802   -1.0037 H   0  0  0  0  0  0
  1  2  1  0  0  0
  1 17  1  0  0  0
  1 18  1  0  0  0
  1 19  1  0  0  0
  2  3  1  0  0  0
  2 20  1  0  0  0
  2 21  1  0  0  0
  3  4  1  0  0  0
  3 22  1  0  0  0
  3 23  1  0  0  0
  4  5  1  0  0  0
  4 24  1  0  0  0
  4 25  1  0  0  0
  5  6  1  0  0  0
  5 26  1  0  0  0
  5 27  1  0  0  0
  6  7  1  0  0  0
  6 28  1  0  0  0
  6 47  1  0  0  0
  7  8  1  0  0  0
  7 29  1  0  0  0
  7 30  1  0  0  0
  8 31  1  0  0  0
  8 32  1  0  0  0
  8 33  1  0  0  0
  9 10  1  0  0  0
  9 16  1  0  0  0
  9 34  1  0  0  0
  9 47  1  0  0  0
 10 11  1  0  0  0
 10 35  1  0  0  0
 10 36  1  0  0  0
 11 12  1  0  0  0
 11 37  1  0  0  0
 11 38  1  0  0  0
 12 13  1  0  0  0
 12 14  1  0  0  0
 12 15  1  0  0  0
 13 39  1  0  0  0
 13 40  1  0  0  0
 13 41  1  0  0  0
 14 42  1  0  0  0
 15 16  1  0  0  0
 15 43  1  0  0  0
 15 44  1  0  0  0
 16 45  1  0  0  0
 16 46  1  0  0  0
 47 48  1  0  0  0
 47 49  1  0  0  0
M  CHG  1  47   1
M  END
> <energy>
22.503

> <chiral flag>
0

> <version>
0

> <i_ionizer_Ion_state_n>
1

> <i_ionizer_Tot_Q>
1

> <s_ionizer_Ion_centers>
47

> <s_ionizer_Ion_types>
N5

> <s_ionizer_Ion_ctrs_in>
9

> <r_ionizer_Ionization_penalty>
0.000148807

> <r_ionizer_Ionization_penalty_charging>
0.000148807

> <r_ionizer_Ionization_penalty_neutral>
0

$$$$
ZINC001258431053
                    3D
 Structure written by MMmdl.
 49 49  0  0  1  0            999 V2000
   -5.0005    1.8111    0.1831 C   0  0  0  0  0  0
   -3.6193    1.5323    0.7520 C   0  0  0  0  0  0
   -3.1593    0.0969    0.4914 C   0  0  0  0  0  0
   -1.8235   -0.1912    1.1895 C   0  0  0  0  0  0
   -1.2879   -1.5963    0.8739 C   0  0  0  0  0  0
   -0.6427   -1.7170   -0.5311 C   0  0  2  0  0  0
   -1.0367   -3.0501   -1.2082 C   0  0  0  0  0  0
   -2.4958   -3.0983   -1.6568 C   0  0  0  0  0  0
    1.4749   -0.5119    0.0506 C   0  0  1  0  0  0
    2.9546   -0.8441    0.2964 C   0  0  0  0  0  0
    3.6824    0.3502    0.9099 C   0  0  0  0  0  0
    3.5574    1.6192    0.0515 C   0  0  1  0  0  0
    4.1736    2.8092    0.7886 C   0  0  0  0  0  0
    4.2818    1.4223   -1.1647 O   0  0  0  0  0  0
    2.0936    1.9139   -0.3179 C   0  0  0  0  0  0
    1.3746    0.6924   -0.8993 C   0  0  0  0  0  0
   -5.2357    2.8741    0.2866 H   0  0  0  0  0  0
   -5.7656    1.2418    0.7182 H   0  0  0  0  0  0
   -5.0612    1.5530   -0.8779 H   0  0  0  0  0  0
   -2.9005    2.2258    0.3031 H   0  0  0  0  0  0
   -3.6294    1.7370    1.8289 H   0  0  0  0  0  0
   -3.9166   -0.6123    0.8499 H   0  0  0  0  0  0
   -3.0595   -0.0598   -0.5886 H   0  0  0  0  0  0
   -1.0869    0.5718    0.9169 H   0  0  0  0  0  0
   -1.9683   -0.1084    2.2744 H   0  0  0  0  0  0
   -0.5481   -1.8618    1.6409 H   0  0  0  0  0  0
   -2.1007   -2.3189    1.0087 H   0  0  0  0  0  0
   -0.9753   -0.8979   -1.1811 H   0  0  0  0  0  0
   -0.8395   -3.8917   -0.5320 H   0  0  0  0  0  0
   -0.4184   -3.2043   -2.1008 H   0  0  0  0  0  0
   -3.1848   -3.1208   -0.8080 H   0  0  0  0  0  0
   -2.7480   -2.2338   -2.2831 H   0  0  0  0  0  0
   -2.6663   -4.0050   -2.2491 H   0  0  0  0  0  0
    1.0481   -0.2393    1.0212 H   0  0  0  0  0  0
    3.4419   -1.1223   -0.6446 H   0  0  0  0  0  0
    3.0457   -1.7031    0.9696 H   0  0  0  0  0  0
    4.7406    0.0803    1.0371 H   0  0  0  0  0  0
    3.2779    0.5337    1.9146 H   0  0  0  0  0  0
    4.1758    3.7059    0.1605 H   0  0  0  0  0  0
    3.6238    3.0304    1.7112 H   0  0  0  0  0  0
    5.2189    2.6073    1.0540 H   0  0  0  0  0  0
    5.2107    1.2428   -0.9410 H   0  0  0  0  0  0
    2.0532    2.7234   -1.0571 H   0  0  0  0  0  0
    1.5467    2.2589    0.5688 H   0  0  0  0  0  0
    0.3293    0.9602   -1.0881 H   0  0  0  0  0  0
    1.8185    0.4432   -1.8702 H   0  0  0  0  0  0
    0.8583   -1.7632   -0.4814 N   0  3  0  0  0  0
    1.1398   -2.5457    0.1209 H   0  0  0  0  0  0
    1.2105   -1.9199   -1.4330 H   0  0  0  0  0  0
  1  2  1  0  0  0
  1 17  1  0  0  0
  1 18  1  0  0  0
  1 19  1  0  0  0
  2  3  1  0  0  0
  2 20  1  0  0  0
  2 21  1  0  0  0
  3  4  1  0  0  0
  3 22  1  0  0  0
  3 23  1  0  0  0
  4  5  1  0  0  0
  4 24  1  0  0  0
  4 25  1  0  0  0
  5  6  1  0  0  0
  5 26  1  0  0  0
  5 27  1  0  0  0
  6  7  1  0  0  0
  6 28  1  0  0  0
  6 47  1  0  0  0
  7  8  1  0  0  0
  7 29  1  0  0  0
  7 30  1  0  0  0
  8 31  1  0  0  0
  8 32  1  0  0  0
  8 33  1  0  0  0
  9 10  1  0  0  0
  9 16  1  0  0  0
  9 34  1  0  0  0
  9 47  1  0  0  0
 10 11  1  0  0  0
 10 35  1  0  0  0
 10 36  1  0  0  0
 11 12  1  0  0  0
 11 37  1  0  0  0
 11 38  1  0  0  0
 12 13  1  0  0  0
 12 14  1  0  0  0
 12 15  1  0  0  0
 13 39  1  0  0  0
 13 40  1  0  0  0
 13 41  1  0  0  0
 14 42  1  0  0  0
 15 16  1  0  0  0
 15 43  1  0  0  0
 15 44  1  0  0  0
 16 45  1  0  0  0
 16 46  1  0  0  0
 47 48  1  0  0  0
 47 49  1  0  0  0
M  CHG  1  47   1
M  END
> <energy>
13.7134

> <chiral flag>
0

> <version>
0

> <i_ionizer_Ion_state_n>
1

> <i_ionizer_Tot_Q>
1

> <s_ionizer_Ion_centers>
47

> <s_ionizer_Ion_types>
N5

> <s_ionizer_Ion_ctrs_in>
9

> <r_ionizer_Ionization_penalty>
0.000148807

> <r_ionizer_Ionization_penalty_charging>
0.000148807

> <r_ionizer_Ionization_penalty_neutral>
0

$$$$
ZINC001258431056
                    3D
 Structure written by MMmdl.
 44 44  0  0  1  0            999 V2000
   -4.4076    0.2137   -1.2125 C   0  0  0  0  0  0
   -2.9613    0.0305   -0.7778 C   0  0  0  0  0  0
   -2.7824    0.3340    0.7110 C   0  0  0  0  0  0
   -1.3332    0.1757    1.1838 C   0  0  0  0  0  0
   -0.8263   -1.2778    1.1304 C   0  0  0  0  0  0
    0.4516   -1.4433    0.2772 C   0  0  2  0  0  0
    0.8196   -2.9320    0.0810 C   0  0  0  0  0  0
   -0.1645   -3.7014   -0.7921 C   0  0  0  0  0  0
    2.5523   -0.1900    0.0619 C   0  0  0  0  0  0
    2.1937    1.2068   -0.3977 C   0  0  0  0  0  0
    1.7162    1.4055   -1.6997 C   0  0  0  0  0  0
    1.3886    2.6882   -2.1096 C   0  0  0  0  0  0
    1.4963    3.7784   -1.3260 N   0  0  0  0  0  0
    1.9438    3.5709   -0.0686 C   0  0  0  0  0  0
    2.3082    2.3276    0.4480 C   0  0  0  0  0  0
    2.7766    2.2241    1.8690 C   0  0  0  0  0  0
   -5.0648   -0.4891   -0.6911 H   0  0  0  0  0  0
   -4.5038    0.0358   -2.2889 H   0  0  0  0  0  0
   -4.7551    1.2295   -1.0003 H   0  0  0  0  0  0
   -2.3202    0.6953   -1.3679 H   0  0  0  0  0  0
   -2.6560   -0.9962   -1.0067 H   0  0  0  0  0  0
   -3.4395   -0.3057    1.3105 H   0  0  0  0  0  0
   -3.0940    1.3688    0.9010 H   0  0  0  0  0  0
   -1.2707    0.5286    2.2214 H   0  0  0  0  0  0
   -0.6984    0.8465    0.5961 H   0  0  0  0  0  0
   -0.6264   -1.6219    2.1545 H   0  0  0  0  0  0
   -1.6159   -1.9355    0.7559 H   0  0  0  0  0  0
    0.2624   -0.9916   -0.7044 H   0  0  0  0  0  0
    1.8059   -3.0069   -0.3921 H   0  0  0  0  0  0
    0.8984   -3.4338    1.0539 H   0  0  0  0  0  0
   -0.3071   -3.2045   -1.7564 H   0  0  0  0  0  0
    0.2197   -4.7098   -0.9823 H   0  0  0  0  0  0
   -1.1397   -3.8099   -0.3089 H   0  0  0  0  0  0
    2.7431   -0.8488   -0.7945 H   0  0  0  0  0  0
    3.5139   -0.1383    0.5873 H   0  0  0  0  0  0
    1.5941    0.5745   -2.3863 H   0  0  0  0  0  0
    1.0177    2.8748   -3.1123 H   0  0  0  0  0  0
    1.9992    4.4711    0.5388 H   0  0  0  0  0  0
    2.8760    3.2112    2.3328 H   0  0  0  0  0  0
    3.7618    1.7501    1.9186 H   0  0  0  0  0  0
    2.0631    1.6499    2.4677 H   0  0  0  0  0  0
    1.5550   -0.7502    0.9980 N   0  3  0  0  0  0
    1.1585    0.0136    1.5580 H   0  0  0  0  0  0
    2.0215   -1.4227    1.6179 H   0  0  0  0  0  0
  1  2  1  0  0  0
  1 17  1  0  0  0
  1 18  1  0  0  0
  1 19  1  0  0  0
  2  3  1  0  0  0
  2 20  1  0  0  0
  2 21  1  0  0  0
  3  4  1  0  0  0
  3 22  1  0  0  0
  3 23  1  0  0  0
  4  5  1  0  0  0
  4 24  1  0  0  0
  4 25  1  0  0  0
  5  6  1  0  0  0
  5 26  1  0  0  0
  5 27  1  0  0  0
  6  7  1  0  0  0
  6 28  1  0  0  0
  6 42  1  0  0  0
  7  8  1  0  0  0
  7 29  1  0  0  0
  7 30  1  0  0  0
  8 31  1  0  0  0
  8 32  1  0  0  0
  8 33  1  0  0  0
  9 10  1  0  0  0
  9 34  1  0  0  0
  9 35  1  0  0  0
  9 42  1  0  0  0
 10 11  2  0  0  0
 10 15  1  0  0  0
 11 12  1  0  0  0
 11 36  1  0  0  0
 12 13  2  0  0  0
 12 37  1  0  0  0
 13 14  1  0  0  0
 14 15  2  0  0  0
 14 38  1  0  0  0
 15 16  1  0  0  0
 16 39  1  0  0  0
 16 40  1  0  0  0
 16 41  1  0  0  0
 42 43  1  0  0  0
 42 44  1  0  0  0
M  CHG  1  42   1
M  END
> <energy>
20.3228

> <chiral flag>
0

> <version>
0

> <i_ionizer_Ion_state_n>
1

> <i_ionizer_Tot_Q>
1

> <s_ionizer_Ion_centers>
42

> <s_ionizer_Ion_types>
N5

> <s_ionizer_Ion_ctrs_in>
9

> <r_ionizer_Ionization_penalty>
0.0075612

> <r_ionizer_Ionization_penalty_charging>
0.000148807

> <r_ionizer_Ionization_penalty_neutral>
0.00741239

$$$$
ZINC001258431057
                    3D
 Structure written by MMmdl.
 44 44  0  0  1  0            999 V2000
    4.0611    0.4196    0.6906 C   0  0  0  0  0  0
    3.4317   -0.9108    1.0779 C   0  0  0  0  0  0
    2.0393   -0.7612    1.6956 C   0  0  0  0  0  0
    0.9319   -0.3853    0.7031 C   0  0  0  0  0  0
    0.6319   -1.5029   -0.3042 C   0  0  0  0  0  0
   -0.8533   -1.8767   -0.5311 C   0  0  1  0  0  0
   -1.6143   -2.1874    0.7758 C   0  0  0  0  0  0
   -2.9305   -2.9174    0.5382 C   0  0  0  0  0  0
   -2.1048    0.2525   -1.0911 C   0  0  0  0  0  0
   -1.1742    1.4391   -1.2260 C   0  0  0  0  0  0
   -0.4563    1.6375   -2.4178 C   0  0  0  0  0  0
    0.3718    2.7411   -2.5426 C   0  0  0  0  0  0
    0.5295    3.6701   -1.5844 N   0  0  0  0  0  0
   -0.1928    3.4945   -0.4568 C   0  0  0  0  0  0
   -1.0607    2.4263   -0.2266 C   0  0  0  0  0  0
   -1.8511    2.3979    1.0497 C   0  0  0  0  0  0
    4.1102    1.0963    1.5513 H   0  0  0  0  0  0
    5.0838    0.2581    0.3329 H   0  0  0  0  0  0
    3.5019    0.9161   -0.1076 H   0  0  0  0  0  0
    3.4037   -1.5694    0.2033 H   0  0  0  0  0  0
    4.0843   -1.3933    1.8150 H   0  0  0  0  0  0
    2.0761   -0.0045    2.4882 H   0  0  0  0  0  0
    1.7667   -1.7052    2.1833 H   0  0  0  0  0  0
    0.0452   -0.1310    1.2864 H   0  0  0  0  0  0
    1.2208    0.5232    0.1668 H   0  0  0  0  0  0
    1.0892   -1.2412   -1.2695 H   0  0  0  0  0  0
    1.1383   -2.4260    0.0114 H   0  0  0  0  0  0
   -0.7920   -2.8420   -1.0536 H   0  0  0  0  0  0
   -0.9819   -2.8283    1.4035 H   0  0  0  0  0  0
   -1.8138   -1.2822    1.3571 H   0  0  0  0  0  0
   -2.7715   -3.8339   -0.0393 H   0  0  0  0  0  0
   -3.3806   -3.1971    1.4965 H   0  0  0  0  0  0
   -3.6451   -2.2888   -0.0008 H   0  0  0  0  0  0
   -2.9582    0.4579   -1.7500 H   0  0  0  0  0  0
   -2.5407    0.1887   -0.0929 H   0  0  0  0  0  0
   -0.5398    0.9515   -3.2530 H   0  0  0  0  0  0
    0.9362    2.9188   -3.4542 H   0  0  0  0  0  0
   -0.0561    4.2768    0.2857 H   0  0  0  0  0  0
   -1.5991    3.2476    1.6951 H   0  0  0  0  0  0
   -1.6487    1.4874    1.6218 H   0  0  0  0  0  0
   -2.9210    2.4650    0.8268 H   0  0  0  0  0  0
   -1.5651   -1.0584   -1.5733 N   0  3  0  0  0  0
   -0.9040   -0.8691   -2.3357 H   0  0  0  0  0  0
   -2.3511   -1.6134   -1.9317 H   0  0  0  0  0  0
  1  2  1  0  0  0
  1 17  1  0  0  0
  1 18  1  0  0  0
  1 19  1  0  0  0
  2  3  1  0  0  0
  2 20  1  0  0  0
  2 21  1  0  0  0
  3  4  1  0  0  0
  3 22  1  0  0  0
  3 23  1  0  0  0
  4  5  1  0  0  0
  4 24  1  0  0  0
  4 25  1  0  0  0
  5  6  1  0  0  0
  5 26  1  0  0  0
  5 27  1  0  0  0
  6  7  1  0  0  0
  6 28  1  0  0  0
  6 42  1  0  0  0
  7  8  1  0  0  0
  7 29  1  0  0  0
  7 30  1  0  0  0
  8 31  1  0  0  0
  8 32  1  0  0  0
  8 33  1  0  0  0
  9 10  1  0  0  0
  9 34  1  0  0  0
  9 35  1  0  0  0
  9 42  1  0  0  0
 10 11  2  0  0  0
 10 15  1  0  0  0
 11 12  1  0  0  0
 11 36  1  0  0  0
 12 13  2  0  0  0
 12 37  1  0  0  0
 13 14  1  0  0  0
 14 15  2  0  0  0
 14 38  1  0  0  0
 15 16  1  0  0  0
 16 39  1  0  0  0
 16 40  1  0  0  0
 16 41  1  0  0  0
 42 43  1  0  0  0
 42 44  1  0  0  0
M  CHG  1  42   1
M  END
> <energy>
27.0495

> <chiral flag>
0

> <version>
0

> <i_ionizer_Ion_state_n>
1

> <i_ionizer_Tot_Q>
1

> <s_ionizer_Ion_centers>
42

> <s_ionizer_Ion_types>
N5

> <s_ionizer_Ion_ctrs_in>
9

> <r_ionizer_Ionization_penalty>
0.0075612

> <r_ionizer_Ionization_penalty_charging>
0.000148807

> <r_ionizer_Ionization_penalty_neutral>
0.00741239

$$$$
ZINC001258431063
                    3D
 Structure written by MMmdl.
 44 44  0  0  1  0            999 V2000
   -1.5610    3.1195    1.5174 C   0  0  0  0  0  0
   -2.7635    2.2034    1.6845 C   0  0  0  0  0  0
   -2.6725    0.9168    0.8598 C   0  0  0  0  0  0
   -1.5353   -0.0114    1.3033 C   0  0  0  0  0  0
   -1.5721   -1.3760    0.6020 C   0  0  0  0  0  0
   -1.1987   -1.3375   -0.8960 C   0  0  2  0  0  0
   -1.5489   -2.6647   -1.6015 C   0  0  0  0  0  0
   -0.9086   -3.9177   -1.0148 C   0  0  0  0  0  0
    0.4986    0.1400   -1.8710 C   0  0  0  0  0  0
    2.0051    0.3808   -2.0753 C   0  0  0  0  0  0
    2.7840    0.5875   -0.7995 C   0  0  0  0  0  0
    2.5140    1.6678    0.0383 C   0  0  0  0  0  0
    3.2467    1.8079    1.2141 C   0  0  0  0  0  0
    4.2252    0.8730    1.5249 C   0  0  0  0  0  0
    4.4334   -0.1692    0.6373 C   0  0  0  0  0  0
    3.7505   -0.3242   -0.5172 N   0  0  0  0  0  0
   -1.4519    3.4306    0.4732 H   0  0  0  0  0  0
   -1.6896    4.0191    2.1280 H   0  0  0  0  0  0
   -0.6331    2.6359    1.8341 H   0  0  0  0  0  0
   -2.8941    1.9574    2.7450 H   0  0  0  0  0  0
   -3.6622    2.7508    1.3752 H   0  0  0  0  0  0
   -3.6256    0.3842    0.9553 H   0  0  0  0  0  0
   -2.5599    1.1786   -0.1980 H   0  0  0  0  0  0
   -0.5653    0.4653    1.1382 H   0  0  0  0  0  0
   -1.6155   -0.1780    2.3859 H   0  0  0  0  0  0
   -0.8883   -2.0456    1.1389 H   0  0  0  0  0  0
   -2.5733   -1.8088    0.7221 H   0  0  0  0  0  0
   -1.8058   -0.5659   -1.3854 H   0  0  0  0  0  0
   -2.6386   -2.7934   -1.5849 H   0  0  0  0  0  0
   -1.2688   -2.5937   -2.6607 H   0  0  0  0  0  0
   -1.2495   -4.8016   -1.5634 H   0  0  0  0  0  0
    0.1825   -3.8857   -1.0900 H   0  0  0  0  0  0
   -1.1781   -4.0608    0.0360 H   0  0  0  0  0  0
    0.0451    1.0300   -1.4198 H   0  0  0  0  0  0
    0.0422    0.0030   -2.8579 H   0  0  0  0  0  0
    2.1464    1.2609   -2.7143 H   0  0  0  0  0  0
    2.4337   -0.4648   -2.6271 H   0  0  0  0  0  0
    1.7388    2.3868   -0.2083 H   0  0  0  0  0  0
    3.0466    2.6353    1.8877 H   0  0  0  0  0  0
    4.8042    0.9467    2.4368 H   0  0  0  0  0  0
    5.1758   -0.9345    0.8407 H   0  0  0  0  0  0
    0.2483   -1.0407   -1.0158 N   0  3  0  0  0  0
    0.6290   -0.8595   -0.0796 H   0  0  0  0  0  0
    0.7215   -1.8543   -1.4261 H   0  0  0  0  0  0
  1  2  1  0  0  0
  1 17  1  0  0  0
  1 18  1  0  0  0
  1 19  1  0  0  0
  2  3  1  0  0  0
  2 20  1  0  0  0
  2 21  1  0  0  0
  3  4  1  0  0  0
  3 22  1  0  0  0
  3 23  1  0  0  0
  4  5  1  0  0  0
  4 24  1  0  0  0
  4 25  1  0  0  0
  5  6  1  0  0  0
  5 26  1  0  0  0
  5 27  1  0  0  0
  6  7  1  0  0  0
  6 28  1  0  0  0
  6 42  1  0  0  0
  7  8  1  0  0  0
  7 29  1  0  0  0
  7 30  1  0  0  0
  8 31  1  0  0  0
  8 32  1  0  0  0
  8 33  1  0  0  0
  9 10  1  0  0  0
  9 34  1  0  0  0
  9 35  1  0  0  0
  9 42  1  0  0  0
 10 11  1  0  0  0
 10 36  1  0  0  0
 10 37  1  0  0  0
 11 12  2  0  0  0
 11 16  1  0  0  0
 12 13  1  0  0  0
 12 38  1  0  0  0
 13 14  2  0  0  0
 13 39  1  0  0  0
 14 15  1  0  0  0
 14 40  1  0  0  0
 15 16  2  0  0  0
 15 41  1  0  0  0
 42 43  1  0  0  0
 42 44  1  0  0  0
M  CHG  1  42   1
M  END
> <energy>
31.8419

> <chiral flag>
0

> <version>
0

> <i_ionizer_Ion_state_n>
1

> <i_ionizer_Tot_Q>
1

> <s_ionizer_Ion_centers>
42

> <s_ionizer_Ion_types>
N5

> <s_ionizer_Ion_ctrs_in>
9

> <r_ionizer_Ionization_penalty>
0.0075612

> <r_ionizer_Ionization_penalty_charging>
0.000148807

> <r_ionizer_Ionization_penalty_neutral>
0.00741239

$$$$
ZINC001258431064
                    3D
 Structure written by MMmdl.
 44 44  0  0  1  0            999 V2000
   -4.0395    0.9779    0.3914 C   0  0  0  0  0  0
   -3.5472   -0.4315    0.1030 C   0  0  0  0  0  0
   -2.4944   -0.8761    1.1237 C   0  0  0  0  0  0
   -1.9473   -2.2804    0.8330 C   0  0  0  0  0  0
   -0.9542   -2.3200   -0.3423 C   0  0  0  0  0  0
    0.4812   -1.8492    0.0182 C   0  0  1  0  0  0
    1.2443   -2.9502    0.7852 C   0  0  0  0  0  0
    2.6281   -2.5329    1.2681 C   0  0  0  0  0  0
    1.7978   -0.1861   -1.1910 C   0  0  0  0  0  0
    0.7660    0.9264   -1.4158 C   0  0  0  0  0  0
    1.2415    2.2478   -0.8710 C   0  0  0  0  0  0
    2.1607    3.0252   -1.5708 C   0  0  0  0  0  0
    2.5631    4.2396   -1.0204 C   0  0  0  0  0  0
    2.0505    4.6395    0.2079 C   0  0  0  0  0  0
    1.1568    3.7973    0.8447 C   0  0  0  0  0  0
    0.7446    2.6175    0.3349 N   0  0  0  0  0  0
   -4.8210    1.2599   -0.3221 H   0  0  0  0  0  0
   -3.2252    1.7057    0.3021 H   0  0  0  0  0  0
   -4.4569    1.0492    1.4009 H   0  0  0  0  0  0
   -4.4001   -1.1205    0.1284 H   0  0  0  0  0  0
   -3.1436   -0.4565   -0.9154 H   0  0  0  0  0  0
   -1.6775   -0.1481    1.1637 H   0  0  0  0  0  0
   -2.9565   -0.8840    2.1197 H   0  0  0  0  0  0
   -1.4745   -2.6746    1.7406 H   0  0  0  0  0  0
   -2.7876   -2.9489    0.6072 H   0  0  0  0  0  0
   -1.3538   -1.7054   -1.1581 H   0  0  0  0  0  0
   -0.9099   -3.3447   -0.7329 H   0  0  0  0  0  0
    0.4053   -0.9665    0.6653 H   0  0  0  0  0  0
    0.6674   -3.2574    1.6634 H   0  0  0  0  0  0
    1.3478   -3.8439    0.1572 H   0  0  0  0  0  0
    3.0586   -3.3227    1.8946 H   0  0  0  0  0  0
    2.5767   -1.6199    1.8691 H   0  0  0  0  0  0
    3.3180   -2.3610    0.4359 H   0  0  0  0  0  0
    2.5510   -0.1275   -1.9867 H   0  0  0  0  0  0
    2.3493   -0.0351   -0.2555 H   0  0  0  0  0  0
   -0.1849    0.6849   -0.9262 H   0  0  0  0  0  0
    0.5361    1.0261   -2.4840 H   0  0  0  0  0  0
    2.5557    2.6995   -2.5273 H   0  0  0  0  0  0
    3.2711    4.8715   -1.5500 H   0  0  0  0  0  0
    2.3447    5.5781    0.6610 H   0  0  0  0  0  0
    0.7329    4.0570    1.8096 H   0  0  0  0  0  0
    1.2214   -1.5483   -1.2375 N   0  3  0  0  0  0
    1.9792   -2.2311   -1.3541 H   0  0  0  0  0  0
    0.5760   -1.6141   -2.0334 H   0  0  0  0  0  0
  1  2  1  0  0  0
  1 17  1  0  0  0
  1 18  1  0  0  0
  1 19  1  0  0  0
  2  3  1  0  0  0
  2 20  1  0  0  0
  2 21  1  0  0  0
  3  4  1  0  0  0
  3 22  1  0  0  0
  3 23  1  0  0  0
  4  5  1  0  0  0
  4 24  1  0  0  0
  4 25  1  0  0  0
  5  6  1  0  0  0
  5 26  1  0  0  0
  5 27  1  0  0  0
  6  7  1  0  0  0
  6 28  1  0  0  0
  6 42  1  0  0  0
  7  8  1  0  0  0
  7 29  1  0  0  0
  7 30  1  0  0  0
  8 31  1  0  0  0
  8 32  1  0  0  0
  8 33  1  0  0  0
  9 10  1  0  0  0
  9 34  1  0  0  0
  9 35  1  0  0  0
  9 42  1  0  0  0
 10 11  1  0  0  0
 10 36  1  0  0  0
 10 37  1  0  0  0
 11 12  2  0  0  0
 11 16  1  0  0  0
 12 13  1  0  0  0
 12 38  1  0  0  0
 13 14  2  0  0  0
 13 39  1  0  0  0
 14 15  1  0  0  0
 14 40  1  0  0  0
 15 16  2  0  0  0
 15 41  1  0  0  0
 42 43  1  0  0  0
 42 44  1  0  0  0
M  CHG  1  42   1
M  END
> <energy>
31.8997

> <chiral flag>
0

> <version>
0

> <i_ionizer_Ion_state_n>
1

> <i_ionizer_Tot_Q>
1

> <s_ionizer_Ion_centers>
42

> <s_ionizer_Ion_types>
N5

> <s_ionizer_Ion_ctrs_in>
9

> <r_ionizer_Ionization_penalty>
0.0075612

> <r_ionizer_Ionization_penalty_charging>
0.000148807

> <r_ionizer_Ionization_penalty_neutral>
0.00741239

$$$$
ZINC001258431123
                    3D
 Structure written by MMmdl.
 44 44  0  0  1  0            999 V2000
   -4.1091    1.9510   -0.9832 C   0  0  0  0  0  0
   -2.8991    2.5222   -0.2597 C   0  0  0  0  0  0
   -2.5539    1.7890    1.0405 C   0  0  0  0  0  0
   -2.2333    0.2959    0.9051 C   0  0  0  0  0  0
   -0.9348   -0.0096    0.1384 C   0  0  0  0  0  0
   -0.8099   -1.5047   -0.2538 C   0  0  2  0  0  0
   -0.6953   -2.4471    0.9670 C   0  0  0  0  0  0
   -0.8941   -3.9173    0.6129 C   0  0  0  0  0  0
    1.5824   -1.9663   -0.9206 C   0  0  0  0  0  0
    2.3419   -0.8317   -0.2625 C   0  0  0  0  0  0
    2.7428    0.2810   -1.0012 C   0  0  0  0  0  0
    3.4757    1.2923   -0.3706 C   0  0  0  0  0  0
    3.9550    2.4818   -1.1454 C   0  0  0  0  0  0
    3.7934    1.1408    0.9792 C   0  0  0  0  0  0
    3.3482    0.0114    1.6426 C   0  0  0  0  0  0
    2.6362   -0.9718    1.0544 N   0  0  0  0  0  0
   -3.9054    0.9511   -1.3795 H   0  0  0  0  0  0
   -4.3776    2.5930   -1.8289 H   0  0  0  0  0  0
   -4.9763    1.8905   -0.3159 H   0  0  0  0  0  0
   -3.1099    3.5698   -0.0127 H   0  0  0  0  0  0
   -2.0402    2.5336   -0.9388 H   0  0  0  0  0  0
   -3.4045    1.8879    1.7287 H   0  0  0  0  0  0
   -1.7081    2.2950    1.5194 H   0  0  0  0  0  0
   -2.1522   -0.1142    1.9182 H   0  0  0  0  0  0
   -3.0785   -0.2201    0.4375 H   0  0  0  0  0  0
   -0.9105    0.5963   -0.7734 H   0  0  0  0  0  0
   -0.0801    0.3039    0.7475 H   0  0  0  0  0  0
   -1.7586   -1.7565   -0.7469 H   0  0  0  0  0  0
    0.2661   -2.3182    1.4753 H   0  0  0  0  0  0
   -1.4597   -2.1923    1.7088 H   0  0  0  0  0  0
   -0.8406   -4.5286    1.5193 H   0  0  0  0  0  0
   -1.8782   -4.0783    0.1589 H   0  0  0  0  0  0
   -0.1332   -4.2832   -0.0804 H   0  0  0  0  0  0
    1.6430   -2.8587   -0.2877 H   0  0  0  0  0  0
    2.1329   -2.2419   -1.8308 H   0  0  0  0  0  0
    2.4994    0.3510   -2.0565 H   0  0  0  0  0  0
    4.8740    2.2344   -1.6853 H   0  0  0  0  0  0
    4.1581    3.3289   -0.4819 H   0  0  0  0  0  0
    3.1963    2.8072   -1.8642 H   0  0  0  0  0  0
    4.3738    1.8882    1.5114 H   0  0  0  0  0  0
    3.5637   -0.1413    2.6971 H   0  0  0  0  0  0
    0.1786   -1.6935   -1.3762 N   0  3  0  0  0  0
   -0.1332   -2.4857   -1.9501 H   0  0  0  0  0  0
    0.1854   -0.8396   -1.9463 H   0  0  0  0  0  0
  1  2  1  0  0  0
  1 17  1  0  0  0
  1 18  1  0  0  0
  1 19  1  0  0  0
  2  3  1  0  0  0
  2 20  1  0  0  0
  2 21  1  0  0  0
  3  4  1  0  0  0
  3 22  1  0  0  0
  3 23  1  0  0  0
  4  5  1  0  0  0
  4 24  1  0  0  0
  4 25  1  0  0  0
  5  6  1  0  0  0
  5 26  1  0  0  0
  5 27  1  0  0  0
  6  7  1  0  0  0
  6 28  1  0  0  0
  6 42  1  0  0  0
  7  8  1  0  0  0
  7 29  1  0  0  0
  7 30  1  0  0  0
  8 31  1  0  0  0
  8 32  1  0  0  0
  8 33  1  0  0  0
  9 10  1  0  0  0
  9 34  1  0  0  0
  9 35  1  0  0  0
  9 42  1  0  0  0
 10 11  2  0  0  0
 10 16  1  0  0  0
 11 12  1  0  0  0
 11 36  1  0  0  0
 12 13  1  0  0  0
 12 14  2  0  0  0
 13 37  1  0  0  0
 13 38  1  0  0  0
 13 39  1  0  0  0
 14 15  1  0  0  0
 14 40  1  0  0  0
 15 16  2  0  0  0
 15 41  1  0  0  0
 42 43  1  0  0  0
 42 44  1  0  0  0
M  CHG  1  42   1
M  END
> <energy>
41.8948

> <chiral flag>
0

> <version>
0

> <i_ionizer_Ion_state_n>
1

> <i_ionizer_Tot_Q>
1

> <s_ionizer_Ion_centers>
42

> <s_ionizer_Ion_types>
N5

> <s_ionizer_Ion_ctrs_in>
9

> <r_ionizer_Ionization_penalty>
0.0075612

> <r_ionizer_Ionization_penalty_charging>
0.000148807

> <r_ionizer_Ionization_penalty_neutral>
0.00741239

$$$$
ZINC001258431124
                    3D
 Structure written by MMmdl.
 44 44  0  0  1  0            999 V2000
   -3.9445    1.3419    0.9431 C   0  0  0  0  0  0
   -3.5200    0.3904   -0.1677 C   0  0  0  0  0  0
   -2.5231   -0.6495    0.3485 C   0  0  0  0  0  0
   -2.0419   -1.5746   -0.7719 C   0  0  0  0  0  0
   -0.9573   -2.5609   -0.3127 C   0  0  0  0  0  0
    0.4462   -1.9344   -0.1263 C   0  0  1  0  0  0
    1.4289   -3.0182    0.3830 C   0  0  0  0  0  0
    2.3517   -2.5203    1.4926 C   0  0  0  0  0  0
    2.0456   -0.5221   -1.4377 C   0  0  0  0  0  0
    1.8252    0.9612   -1.1867 C   0  0  0  0  0  0
    1.4530    1.4492    0.0650 C   0  0  0  0  0  0
    1.3870    2.8315    0.2844 C   0  0  0  0  0  0
    0.9882    3.3610    1.6294 C   0  0  0  0  0  0
    1.7465    3.6828   -0.7578 C   0  0  0  0  0  0
    2.0847    3.1255   -1.9806 C   0  0  0  0  0  0
    2.1264    1.7954   -2.2168 N   0  0  0  0  0  0
   -4.6089    2.1142    0.5435 H   0  0  0  0  0  0
   -4.4786    0.8057    1.7352 H   0  0  0  0  0  0
   -3.0714    1.8363    1.3831 H   0  0  0  0  0  0
   -4.4057   -0.1073   -0.5783 H   0  0  0  0  0  0
   -3.0672    0.9690   -0.9812 H   0  0  0  0  0  0
   -1.6714   -0.1352    0.8029 H   0  0  0  0  0  0
   -2.9936   -1.2491    1.1351 H   0  0  0  0  0  0
   -1.6812   -0.9786   -1.6181 H   0  0  0  0  0  0
   -2.9002   -2.1508   -1.1436 H   0  0  0  0  0  0
   -0.8970   -3.3756   -1.0434 H   0  0  0  0  0  0
   -1.2762   -3.0221    0.6289 H   0  0  0  0  0  0
    0.3512   -1.1493    0.6272 H   0  0  0  0  0  0
    0.8795   -3.8792    0.7858 H   0  0  0  0  0  0
    2.0390   -3.4148   -0.4387 H   0  0  0  0  0  0
    2.9309   -1.6400    1.2032 H   0  0  0  0  0  0
    1.7709   -2.2587    2.3827 H   0  0  0  0  0  0
    3.0589   -3.3086    1.7745 H   0  0  0  0  0  0
    2.8346   -0.8869   -0.7777 H   0  0  0  0  0  0
    2.4656   -0.6052   -2.4498 H   0  0  0  0  0  0
    1.2334    0.7708    0.8818 H   0  0  0  0  0  0
    1.8079    3.2395    2.3437 H   0  0  0  0  0  0
    0.7240    4.4210    1.5780 H   0  0  0  0  0  0
    0.1101    2.8240    2.0033 H   0  0  0  0  0  0
    1.7613    4.7595   -0.6280 H   0  0  0  0  0  0
    2.3639    3.7503   -2.8233 H   0  0  0  0  0  0
    0.8198   -1.3762   -1.4664 N   0  3  0  0  0  0
    0.9847   -2.1591   -2.1098 H   0  0  0  0  0  0
    0.0368   -0.8087   -1.8115 H   0  0  0  0  0  0
  1  2  1  0  0  0
  1 17  1  0  0  0
  1 18  1  0  0  0
  1 19  1  0  0  0
  2  3  1  0  0  0
  2 20  1  0  0  0
  2 21  1  0  0  0
  3  4  1  0  0  0
  3 22  1  0  0  0
  3 23  1  0  0  0
  4  5  1  0  0  0
  4 24  1  0  0  0
  4 25  1  0  0  0
  5  6  1  0  0  0
  5 26  1  0  0  0
  5 27  1  0  0  0
  6  7  1  0  0  0
  6 28  1  0  0  0
  6 42  1  0  0  0
  7  8  1  0  0  0
  7 29  1  0  0  0
  7 30  1  0  0  0
  8 31  1  0  0  0
  8 32  1  0  0  0
  8 33  1  0  0  0
  9 10  1  0  0  0
  9 34  1  0  0  0
  9 35  1  0  0  0
  9 42  1  0  0  0
 10 11  2  0  0  0
 10 16  1  0  0  0
 11 12  1  0  0  0
 11 36  1  0  0  0
 12 13  1  0  0  0
 12 14  2  0  0  0
 13 37  1  0  0  0
 13 38  1  0  0  0
 13 39  1  0  0  0
 14 15  1  0  0  0
 14 40  1  0  0  0
 15 16  2  0  0  0
 15 41  1  0  0  0
 42 43  1  0  0  0
 42 44  1  0  0  0
M  CHG  1  42   1
M  END
> <energy>
44.8399

> <chiral flag>
0

> <version>
0

> <i_ionizer_Ion_state_n>
1

> <i_ionizer_Tot_Q>
1

> <s_ionizer_Ion_centers>
42

> <s_ionizer_Ion_types>
N5

> <s_ionizer_Ion_ctrs_in>
9

> <r_ionizer_Ionization_penalty>
0.0075612

> <r_ionizer_Ionization_penalty_charging>
0.000148807

> <r_ionizer_Ionization_penalty_neutral>
0.00741239

$$$$
ZINC001258431237
                    3D
 Structure written by MMmdl.
 38 37  0  0  1  0            999 V2000
   -4.9371   -1.0979   -0.4567 C   0  0  0  0  0  0
   -3.5708   -0.7591    0.1206 C   0  0  0  0  0  0
   -2.4338   -1.2153   -0.7961 C   0  0  0  0  0  0
   -1.0691   -0.8078   -0.2219 C   0  0  0  0  0  0
    0.0790   -1.3212   -1.0975 C   0  0  0  0  0  0
    1.5144   -0.9040   -0.6910 C   0  0  2  0  0  0
    1.9552   -1.5002    0.6603 C   0  0  0  0  0  0
    3.4683   -1.4580    0.8695 C   0  0  0  0  0  0
    1.5299    1.4060    0.3044 C   0  0  0  0  0  0
    1.4585    2.9023   -0.0589 C   0  0  0  0  0  0
    1.2254    3.7831    1.1505 C   0  0  0  0  0  0
    2.6222    3.2795   -0.6541 F   0  0  0  0  0  0
    0.4674    3.1244   -0.9586 F   0  0  0  0  0  0
   -5.1039   -0.5697   -1.4000 H   0  0  0  0  0  0
   -5.0379   -2.1703   -0.6399 H   0  0  0  0  0  0
   -5.7244   -0.7988    0.2425 H   0  0  0  0  0  0
   -3.4669   -1.2367    1.1008 H   0  0  0  0  0  0
   -3.5116    0.3243    0.2803 H   0  0  0  0  0  0
   -2.5616   -0.7639   -1.7881 H   0  0  0  0  0  0
   -2.4748   -2.3031   -0.9250 H   0  0  0  0  0  0
   -0.9655   -1.2033    0.7945 H   0  0  0  0  0  0
   -1.0515    0.2834   -0.1640 H   0  0  0  0  0  0
    0.0316   -2.4189   -1.1248 H   0  0  0  0  0  0
   -0.0972   -0.9931   -2.1307 H   0  0  0  0  0  0
    2.1471   -1.3831   -1.4513 H   0  0  0  0  0  0
    1.6434   -2.5493    0.7071 H   0  0  0  0  0  0
    1.4584   -0.9986    1.4961 H   0  0  0  0  0  0
    3.8655   -0.4401    0.8452 H   0  0  0  0  0  0
    3.9834   -2.0393    0.0961 H   0  0  0  0  0  0
    3.7217   -1.8922    1.8432 H   0  0  0  0  0  0
    2.3692    1.2658    0.9926 H   0  0  0  0  0  0
    0.6136    1.1361    0.8371 H   0  0  0  0  0  0
    0.2800    3.5410    1.6447 H   0  0  0  0  0  0
    1.1690    4.8313    0.8409 H   0  0  0  0  0  0
    2.0426    3.6895    1.8716 H   0  0  0  0  0  0
    1.7334    0.5589   -0.9236 N   0  3  0  0  0  0
    2.6961    0.6935   -1.2541 H   0  0  0  0  0  0
    1.0761    0.8736   -1.6468 H   0  0  0  0  0  0
  1  2  1  0  0  0
  1 14  1  0  0  0
  1 15  1  0  0  0
  1 16  1  0  0  0
  2  3  1  0  0  0
  2 17  1  0  0  0
  2 18  1  0  0  0
  3  4  1  0  0  0
  3 19  1  0  0  0
  3 20  1  0  0  0
  4  5  1  0  0  0
  4 21  1  0  0  0
  4 22  1  0  0  0
  5  6  1  0  0  0
  5 23  1  0  0  0
  5 24  1  0  0  0
  6  7  1  0  0  0
  6 25  1  0  0  0
  6 36  1  0  0  0
  7  8  1  0  0  0
  7 26  1  0  0  0
  7 27  1  0  0  0
  8 28  1  0  0  0
  8 29  1  0  0  0
  8 30  1  0  0  0
  9 10  1  0  0  0
  9 31  1  0  0  0
  9 32  1  0  0  0
  9 36  1  0  0  0
 10 11  1  0  0  0
 10 12  1  0  0  0
 10 13  1  0  0  0
 11 33  1  0  0  0
 11 34  1  0  0  0
 11 35  1  0  0  0
 36 37  1  0  0  0
 36 38  1  0  0  0
M  CHG  1  36   1
M  END
> <energy>
54.3347

> <chiral flag>
0

> <version>
0

> <i_ionizer_Ion_state_n>
1

> <i_ionizer_Tot_Q>
1

> <s_ionizer_Ion_centers>
36

> <s_ionizer_Ion_types>
N5

> <s_ionizer_Ion_ctrs_in>
9

> <r_ionizer_Ionization_penalty>
0.000148807

> <r_ionizer_Ionization_penalty_charging>
0.000148807

> <r_ionizer_Ionization_penalty_neutral>
0

$$$$
ZINC001258431238
                    3D
 Structure written by MMmdl.
 38 37  0  0  1  0            999 V2000
   -4.1724    1.5337    1.0413 C   0  0  0  0  0  0
   -3.5532    0.2887    0.4238 C   0  0  0  0  0  0
   -2.2038    0.6018   -0.2303 C   0  0  0  0  0  0
   -1.5429   -0.6320   -0.8588 C   0  0  0  0  0  0
   -0.9305   -1.5983    0.1619 C   0  0  0  0  0  0
    0.6058   -1.5642    0.3676 C   0  0  1  0  0  0
    1.3888   -1.9235   -0.9100 C   0  0  0  0  0  0
    2.7957   -2.4305   -0.6084 C   0  0  0  0  0  0
    1.2819    0.8691    0.3639 C   0  0  0  0  0  0
    2.7423    1.3099    0.1119 C   0  0  0  0  0  0
    2.8156    2.7324   -0.4081 C   0  0  0  0  0  0
    3.4686    1.2327    1.2566 F   0  0  0  0  0  0
    3.3411    0.5015   -0.7990 F   0  0  0  0  0  0
   -3.5297    1.9476    1.8247 H   0  0  0  0  0  0
   -5.1397    1.2904    1.4923 H   0  0  0  0  0  0
   -4.3350    2.3082    0.2847 H   0  0  0  0  0  0
   -3.4391   -0.4724    1.2024 H   0  0  0  0  0  0
   -4.2414   -0.1158   -0.3274 H   0  0  0  0  0  0
   -1.5354    1.0629    0.5040 H   0  0  0  0  0  0
   -2.3641    1.3450   -1.0221 H   0  0  0  0  0  0
   -0.7946   -0.3143   -1.5913 H   0  0  0  0  0  0
   -2.3050   -1.1704   -1.4358 H   0  0  0  0  0  0
   -1.4186   -1.4878    1.1367 H   0  0  0  0  0  0
   -1.1823   -2.6173   -0.1655 H   0  0  0  0  0  0
    0.7890   -2.3971    1.0618 H   0  0  0  0  0  0
    0.8584   -2.7158   -1.4536 H   0  0  0  0  0  0
    1.4487   -1.0744   -1.5973 H   0  0  0  0  0  0
    2.7581   -3.3739   -0.0542 H   0  0  0  0  0  0
    3.3720   -1.7180   -0.0131 H   0  0  0  0  0  0
    3.3385   -2.6117   -1.5421 H   0  0  0  0  0  0
    0.8154    1.6503    0.9779 H   0  0  0  0  0  0
    0.7442    0.8726   -0.5859 H   0  0  0  0  0  0
    2.3864    3.4364    0.3114 H   0  0  0  0  0  0
    3.8605    3.0182   -0.5666 H   0  0  0  0  0  0
    2.2936    2.8322   -1.3652 H   0  0  0  0  0  0
    1.1041   -0.3939    1.1650 N   0  3  0  0  0  0
    0.4303   -0.2063    1.9166 H   0  0  0  0  0  0
    2.0115   -0.6462    1.5739 H   0  0  0  0  0  0
  1  2  1  0  0  0
  1 14  1  0  0  0
  1 15  1  0  0  0
  1 16  1  0  0  0
  2  3  1  0  0  0
  2 17  1  0  0  0
  2 18  1  0  0  0
  3  4  1  0  0  0
  3 19  1  0  0  0
  3 20  1  0  0  0
  4  5  1  0  0  0
  4 21  1  0  0  0
  4 22  1  0  0  0
  5  6  1  0  0  0
  5 23  1  0  0  0
  5 24  1  0  0  0
  6  7  1  0  0  0
  6 25  1  0  0  0
  6 36  1  0  0  0
  7  8  1  0  0  0
  7 26  1  0  0  0
  7 27  1  0  0  0
  8 28  1  0  0  0
  8 29  1  0  0  0
  8 30  1  0  0  0
  9 10  1  0  0  0
  9 31  1  0  0  0
  9 32  1  0  0  0
  9 36  1  0  0  0
 10 11  1  0  0  0
 10 12  1  0  0  0
 10 13  1  0  0  0
 11 33  1  0  0  0
 11 34  1  0  0  0
 11 35  1  0  0  0
 36 37  1  0  0  0
 36 38  1  0  0  0
M  CHG  1  36   1
M  END
> <energy>
62.6403

> <chiral flag>
0

> <version>
0

> <i_ionizer_Ion_state_n>
1

> <i_ionizer_Tot_Q>
1

> <s_ionizer_Ion_centers>
36

> <s_ionizer_Ion_types>
N5

> <s_ionizer_Ion_ctrs_in>
9

> <r_ionizer_Ionization_penalty>
0.000148807

> <r_ionizer_Ionization_penalty_charging>
0.000148807

> <r_ionizer_Ionization_penalty_neutral>
0

$$$$
ZINC001258431244
                    3D
 Structure written by MMmdl.
 53 52  0  0  1  0            999 V2000
   -1.2511    2.0580   -3.1862 C   0  0  0  0  0  0
   -1.4680    1.0288   -2.0898 C   0  0  0  0  0  0
   -2.9334    0.9154   -1.6742 C   0  0  0  0  0  0
   -3.1692   -0.0034   -0.4633 C   0  0  0  0  0  0
   -2.7551   -1.4643   -0.7008 C   0  0  0  0  0  0
   -1.3318   -1.8019   -0.2003 C   0  0  2  0  0  0
   -0.8543   -3.1639   -0.7525 C   0  0  0  0  0  0
   -0.4821   -3.1168   -2.2296 C   0  0  0  0  0  0
   -0.0529   -1.5066    1.8565 C   0  0  0  0  0  0
    0.0334   -0.0166    2.1983 C   0  0  0  0  0  0
    1.4799    0.4543    2.4306 C   0  0  0  0  0  0
    2.3696    2.4562    1.3136 C   0  0  0  0  0  0
    1.1314    3.3379    1.4532 C   0  0  0  0  0  0
    3.0131    0.2365    0.5092 C   0  0  0  0  0  0
    4.4012    0.2337    1.1378 C   0  0  0  0  0  0
   -0.1840    2.1354   -3.4166 H   0  0  0  0  0  0
   -1.6039    3.0467   -2.8768 H   0  0  0  0  0  0
   -1.7746    1.7730   -4.1052 H   0  0  0  0  0  0
   -1.1051    0.0617   -2.4563 H   0  0  0  0  0  0
   -0.8609    1.3063   -1.2210 H   0  0  0  0  0  0
   -3.3207    1.9136   -1.4262 H   0  0  0  0  0  0
   -3.5324    0.5519   -2.5191 H   0  0  0  0  0  0
   -4.2450    0.0176   -0.2443 H   0  0  0  0  0  0
   -2.6760    0.4174    0.4205 H   0  0  0  0  0  0
   -3.4767   -2.1138   -0.1851 H   0  0  0  0  0  0
   -2.8638   -1.6914   -1.7677 H   0  0  0  0  0  0
   -0.6365   -1.0226   -0.5308 H   0  0  0  0  0  0
   -1.6261   -3.9292   -0.5968 H   0  0  0  0  0  0
    0.0333   -3.4993   -0.2056 H   0  0  0  0  0  0
    0.2663   -2.3429   -2.4288 H   0  0  0  0  0  0
   -0.0492   -4.0747   -2.5362 H   0  0  0  0  0  0
   -1.3503   -2.9262   -2.8673 H   0  0  0  0  0  0
    0.0572   -2.0732    2.7887 H   0  0  0  0  0  0
    0.7693   -1.8253    1.2094 H   0  0  0  0  0  0
   -0.5545    0.1675    3.1083 H   0  0  0  0  0  0
   -0.4354    0.5969    1.4159 H   0  0  0  0  0  0
    1.4714    1.1955    3.2414 H   0  0  0  0  0  0
    2.1019   -0.3701    2.8022 H   0  0  0  0  0  0
    3.0523    2.6302    2.1557 H   0  0  0  0  0  0
    2.8941    2.7859    0.4075 H   0  0  0  0  0  0
    1.4121    4.3948    1.4205 H   0  0  0  0  0  0
    0.5975    3.1610    2.3916 H   0  0  0  0  0  0
    0.4362    3.1590    0.6259 H   0  0  0  0  0  0
    3.1008    0.5986   -0.5226 H   0  0  0  0  0  0
    2.6611   -0.7970    0.4086 H   0  0  0  0  0  0
    4.3813   -0.1433    2.1624 H   0  0  0  0  0  0
    4.8415    1.2354    1.1473 H   0  0  0  0  0  0
    5.0721   -0.4083    0.5559 H   0  0  0  0  0  0
   -1.3737   -1.8445    1.2876 N   0  3  0  0  0  0
   -2.0689   -1.1684    1.6248 H   0  0  0  0  0  0
   -1.6396   -2.7888    1.5905 H   0  0  0  0  0  0
    1.9318    1.0467    1.1320 N   0  3  0  0  0  0
    1.1297    1.0452    0.4910 H   0  0  0  0  0  0
  1  2  1  0  0  0
  1 16  1  0  0  0
  1 17  1  0  0  0
  1 18  1  0  0  0
  2  3  1  0  0  0
  2 19  1  0  0  0
  2 20  1  0  0  0
  3  4  1  0  0  0
  3 21  1  0  0  0
  3 22  1  0  0  0
  4  5  1  0  0  0
  4 23  1  0  0  0
  4 24  1  0  0  0
  5  6  1  0  0  0
  5 25  1  0  0  0
  5 26  1  0  0  0
  6  7  1  0  0  0
  6 27  1  0  0  0
  6 49  1  0  0  0
  7  8  1  0  0  0
  7 28  1  0  0  0
  7 29  1  0  0  0
  8 30  1  0  0  0
  8 31  1  0  0  0
  8 32  1  0  0  0
  9 10  1  0  0  0
  9 33  1  0  0  0
  9 34  1  0  0  0
  9 49  1  0  0  0
 10 11  1  0  0  0
 10 35  1  0  0  0
 10 36  1  0  0  0
 11 37  1  0  0  0
 11 38  1  0  0  0
 11 52  1  0  0  0
 12 13  1  0  0  0
 12 39  1  0  0  0
 12 40  1  0  0  0
 12 52  1  0  0  0
 13 41  1  0  0  0
 13 42  1  0  0  0
 13 43  1  0  0  0
 14 15  1  0  0  0
 14 44  1  0  0  0
 14 45  1  0  0  0
 14 52  1  0  0  0
 15 46  1  0  0  0
 15 47  1  0  0  0
 15 48  1  0  0  0
 49 50  1  0  0  0
 49 51  1  0  0  0
 52 53  1  0  0  0
M  CHG  2  49   1  52   1
M  END
> <energy>
14.5655

> <chiral flag>
0

> <version>
0

> <i_ionizer_Ion_state_n>
3

> <i_ionizer_Tot_Q>
2

> <s_ionizer_Ion_centers>
49_52

> <s_ionizer_Ion_types>
N5_N5

> <s_ionizer_Ion_ctrs_in>
9_13

> <r_ionizer_Ionization_penalty>
0.0016352

> <r_ionizer_Ionization_penalty_charging>
0.0016352

> <r_ionizer_Ionization_penalty_neutral>
0

$$$$
ZINC001258431245
                    3D
 Structure written by MMmdl.
 53 52  0  0  1  0            999 V2000
   -3.0670    3.9250    0.3525 C   0  0  0  0  0  0
   -3.1560    2.4914    0.8569 C   0  0  0  0  0  0
   -2.8267    1.5026   -0.2616 C   0  0  0  0  0  0
   -2.9764    0.0313    0.1438 C   0  0  0  0  0  0
   -1.9985   -0.4051    1.2390 C   0  0  0  0  0  0
   -1.4475   -1.8548    1.2041 C   0  0  1  0  0  0
   -2.5387   -2.9540    1.2186 C   0  0  0  0  0  0
   -3.1185   -3.3811   -0.1221 C   0  0  0  0  0  0
   -0.2009   -1.5505   -0.9743 C   0  0  0  0  0  0
    0.6508   -0.2747   -0.9340 C   0  0  0  0  0  0
    2.1529   -0.5647   -1.0646 C   0  0  0  0  0  0
    3.2935    0.5839    0.7322 C   0  0  0  0  0  0
    3.8590    1.8988    1.2546 C   0  0  0  0  0  0
    4.0487    0.8907   -1.6084 C   0  0  0  0  0  0
    5.1836   -0.1247   -1.5865 C   0  0  0  0  0  0
   -3.2842    4.6294    1.1620 H   0  0  0  0  0  0
   -2.0627    4.1398   -0.0253 H   0  0  0  0  0  0
   -3.7832    4.1031   -0.4562 H   0  0  0  0  0  0
   -4.1660    2.3055    1.2414 H   0  0  0  0  0  0
   -2.4605    2.3670    1.6949 H   0  0  0  0  0  0
   -1.8066    1.6831   -0.6201 H   0  0  0  0  0  0
   -3.4916    1.6933   -1.1139 H   0  0  0  0  0  0
   -4.0034   -0.1447    0.4881 H   0  0  0  0  0  0
   -2.8609   -0.5613   -0.7615 H   0  0  0  0  0  0
   -2.5229   -0.2807    2.1992 H   0  0  0  0  0  0
   -1.1577    0.2931    1.3092 H   0  0  0  0  0  0
   -0.9931   -1.9492    2.2012 H   0  0  0  0  0  0
   -2.0996   -3.8517    1.6789 H   0  0  0  0  0  0
   -3.3575   -2.6517    1.8823 H   0  0  0  0  0  0
   -3.7384   -2.6015   -0.5679 H   0  0  0  0  0  0
   -2.3406   -3.6640   -0.8360 H   0  0  0  0  0  0
   -3.7587   -4.2593    0.0222 H   0  0  0  0  0  0
    0.2856   -2.2596   -1.6574 H   0  0  0  0  0  0
   -1.1738   -1.3639   -1.4306 H   0  0  0  0  0  0
    0.4557    0.2880   -0.0190 H   0  0  0  0  0  0
    0.3489    0.3776   -1.7629 H   0  0  0  0  0  0
    2.3373   -0.8432   -2.1103 H   0  0  0  0  0  0
    2.4550   -1.4347   -0.4679 H   0  0  0  0  0  0
    2.3981    0.3646    1.3289 H   0  0  0  0  0  0
    4.0036   -0.2262    0.9353 H   0  0  0  0  0  0
    3.1913    2.7366    1.0283 H   0  0  0  0  0  0
    4.8468    2.1143    0.8338 H   0  0  0  0  0  0
    3.9719    1.8493    2.3428 H   0  0  0  0  0  0
    3.6555    0.9571   -2.6314 H   0  0  0  0  0  0
    4.4585    1.8887   -1.4092 H   0  0  0  0  0  0
    4.8290   -1.1392   -1.7873 H   0  0  0  0  0  0
    5.7079   -0.1234   -0.6259 H   0  0  0  0  0  0
    5.9162    0.1250   -2.3607 H   0  0  0  0  0  0
   -0.2643   -2.2424    0.3471 N   0  3  0  0  0  0
    0.5936   -2.0206    0.8659 H   0  0  0  0  0  0
   -0.3095   -3.2539    0.1768 H   0  0  0  0  0  0
    2.8766    0.6703   -0.6966 N   0  3  0  0  0  0
    2.2380    1.4676   -0.8001 H   0  0  0  0  0  0
  1  2  1  0  0  0
  1 16  1  0  0  0
  1 17  1  0  0  0
  1 18  1  0  0  0
  2  3  1  0  0  0
  2 19  1  0  0  0
  2 20  1  0  0  0
  3  4  1  0  0  0
  3 21  1  0  0  0
  3 22  1  0  0  0
  4  5  1  0  0  0
  4 23  1  0  0  0
  4 24  1  0  0  0
  5  6  1  0  0  0
  5 25  1  0  0  0
  5 26  1  0  0  0
  6  7  1  0  0  0
  6 27  1  0  0  0
  6 49  1  0  0  0
  7  8  1  0  0  0
  7 28  1  0  0  0
  7 29  1  0  0  0
  8 30  1  0  0  0
  8 31  1  0  0  0
  8 32  1  0  0  0
  9 10  1  0  0  0
  9 33  1  0  0  0
  9 34  1  0  0  0
  9 49  1  0  0  0
 10 11  1  0  0  0
 10 35  1  0  0  0
 10 36  1  0  0  0
 11 37  1  0  0  0
 11 38  1  0  0  0
 11 52  1  0  0  0
 12 13  1  0  0  0
 12 39  1  0  0  0
 12 40  1  0  0  0
 12 52  1  0  0  0
 13 41  1  0  0  0
 13 42  1  0  0  0
 13 43  1  0  0  0
 14 15  1  0  0  0
 14 44  1  0  0  0
 14 45  1  0  0  0
 14 52  1  0  0  0
 15 46  1  0  0  0
 15 47  1  0  0  0
 15 48  1  0  0  0
 49 50  1  0  0  0
 49 51  1  0  0  0
 52 53  1  0  0  0
M  CHG  2  49   1  52   1
M  END
> <energy>
21.6011

> <chiral flag>
0

> <version>
0

> <i_ionizer_Ion_state_n>
3

> <i_ionizer_Tot_Q>
2

> <s_ionizer_Ion_centers>
49_52

> <s_ionizer_Ion_types>
N5_N5

> <s_ionizer_Ion_ctrs_in>
9_13

> <r_ionizer_Ionization_penalty>
0.0016352

> <r_ionizer_Ionization_penalty_charging>
0.0016352

> <r_ionizer_Ionization_penalty_neutral>
0

$$$$
ZINC001258431271
                    3D
 Structure written by MMmdl.
 44 44  0  0  1  0            999 V2000
   -2.4918   -0.8535   -1.9814 C   0  0  0  0  0  0
   -3.0945   -0.8245   -0.5845 C   0  0  0  0  0  0
   -2.5445    0.3260    0.2618 C   0  0  0  0  0  0
   -1.2432   -0.0237    0.9972 C   0  0  0  0  0  0
   -0.6122    1.2252    1.6361 C   0  0  0  0  0  0
    0.3080    1.9929    0.6557 C   0  0  1  0  0  0
    0.2935    3.5158    0.9027 C   0  0  0  0  0  0
   -1.0150    4.1757    0.4867 C   0  0  0  0  0  0
    2.3880    1.1605   -0.3743 C   0  0  0  0  0  0
    2.2561   -0.2916   -0.7034 C   0  0  0  0  0  0
    2.6580   -1.3428   -0.0101 N   0  0  0  0  0  0
    2.2267   -2.4179   -0.7466 C   0  0  0  0  0  0
    2.4193   -3.8049   -0.2595 C   0  0  0  0  0  0
    1.3528   -4.2077    0.7474 C   0  0  0  0  0  0
    1.6173   -1.9668   -1.8949 C   0  0  0  0  0  0
    1.6306   -0.6041   -1.8821 O   0  0  0  0  0  0
   -2.9692   -1.6359   -2.5782 H   0  0  0  0  0  0
   -1.4184   -1.0543   -1.9510 H   0  0  0  0  0  0
   -2.6490    0.1003   -2.4955 H   0  0  0  0  0  0
   -2.9360   -1.7888   -0.0888 H   0  0  0  0  0  0
   -4.1800   -0.6957   -0.6875 H   0  0  0  0  0  0
   -3.2977    0.5861    1.0150 H   0  0  0  0  0  0
   -2.4106    1.2177   -0.3598 H   0  0  0  0  0  0
   -1.4780   -0.7458    1.7899 H   0  0  0  0  0  0
   -0.5337   -0.5193    0.3286 H   0  0  0  0  0  0
   -1.4051    1.8657    2.0360 H   0  0  0  0  0  0
   -0.0354    0.9110    2.5153 H   0  0  0  0  0  0
   -0.0263    1.8092   -0.3717 H   0  0  0  0  0  0
    1.0971    3.9888    0.3208 H   0  0  0  0  0  0
    0.4938    3.7365    1.9604 H   0  0  0  0  0  0
   -1.2235    3.9877   -0.5727 H   0  0  0  0  0  0
   -1.8605    3.8126    1.0758 H   0  0  0  0  0  0
   -0.9473    5.2593    0.6353 H   0  0  0  0  0  0
    2.0767    1.7903   -1.2143 H   0  0  0  0  0  0
    3.4530    1.3661   -0.2236 H   0  0  0  0  0  0
    2.4022   -4.5061   -1.1027 H   0  0  0  0  0  0
    3.4083   -3.8893    0.2077 H   0  0  0  0  0  0
    0.3650   -4.2620    0.2757 H   0  0  0  0  0  0
    1.5809   -5.1888    1.1730 H   0  0  0  0  0  0
    1.2856   -3.4884    1.5703 H   0  0  0  0  0  0
    1.1487   -2.4405   -2.7442 H   0  0  0  0  0  0
    1.6969    1.5128    0.8944 N   0  3  0  0  0  0
    2.2277    2.2540    1.3667 H   0  0  0  0  0  0
    1.6618    0.6809    1.4952 H   0  0  0  0  0  0
  1  2  1  0  0  0
  1 17  1  0  0  0
  1 18  1  0  0  0
  1 19  1  0  0  0
  2  3  1  0  0  0
  2 20  1  0  0  0
  2 21  1  0  0  0
  3  4  1  0  0  0
  3 22  1  0  0  0
  3 23  1  0  0  0
  4  5  1  0  0  0
  4 24  1  0  0  0
  4 25  1  0  0  0
  5  6  1  0  0  0
  5 26  1  0  0  0
  5 27  1  0  0  0
  6  7  1  0  0  0
  6 28  1  0  0  0
  6 42  1  0  0  0
  7  8  1  0  0  0
  7 29  1  0  0  0
  7 30  1  0  0  0
  8 31  1  0  0  0
  8 32  1  0  0  0
  8 33  1  0  0  0
  9 10  1  0  0  0
  9 34  1  0  0  0
  9 35  1  0  0  0
  9 42  1  0  0  0
 10 11  2  0  0  0
 10 16  1  0  0  0
 11 12  1  0  0  0
 12 13  1  0  0  0
 12 15  2  0  0  0
 13 14  1  0  0  0
 13 36  1  0  0  0
 13 37  1  0  0  0
 14 38  1  0  0  0
 14 39  1  0  0  0
 14 40  1  0  0  0
 15 16  1  0  0  0
 15 41  1  0  0  0
 42 43  1  0  0  0
 42 44  1  0  0  0
M  CHG  1  42   1
M  END
> <energy>
39.8919

> <chiral flag>
0

> <version>
0

> <i_ionizer_Ion_state_n>
1

> <i_ionizer_Tot_Q>
1

> <s_ionizer_Ion_centers>
42

> <s_ionizer_Ion_types>
N5

> <s_ionizer_Ion_ctrs_in>
9

> <r_ionizer_Ionization_penalty>
0.000148807

> <r_ionizer_Ionization_penalty_charging>
0.000148807

> <r_ionizer_Ionization_penalty_neutral>
0

$$$$
ZINC001258431272
                    3D
 Structure written by MMmdl.
 44 44  0  0  1  0            999 V2000
   -0.9397    1.1548    3.3125 C   0  0  0  0  0  0
   -2.1848    0.7651    2.5250 C   0  0  0  0  0  0
   -2.1374   -0.6632    1.9736 C   0  0  0  0  0  0
   -1.0245   -0.8593    0.9408 C   0  0  0  0  0  0
   -0.9980   -2.2849    0.3972 C   0  0  0  0  0  0
    0.3273   -2.7889   -0.2336 C   0  0  2  0  0  0
    1.5388   -2.7116    0.7307 C   0  0  0  0  0  0
    2.4036   -1.4577    0.6355 C   0  0  0  0  0  0
    0.0222   -1.3726   -2.3095 C   0  0  0  0  0  0
    0.5543    0.0091   -2.0904 C   0  0  0  0  0  0
   -0.0941    1.0858   -1.6893 N   0  0  0  0  0  0
    0.8560    2.0787   -1.7053 C   0  0  0  0  0  0
    0.5237    3.4625   -1.2869 C   0  0  0  0  0  0
   -0.4812    4.1256   -2.2170 C   0  0  0  0  0  0
    2.0530    1.5588   -2.1456 C   0  0  0  0  0  0
    1.8694    0.2365   -2.4125 O   0  0  0  0  0  0
   -0.0480    1.1811    2.6796 H   0  0  0  0  0  0
   -0.7566    0.4551    4.1336 H   0  0  0  0  0  0
   -1.0629    2.1540    3.7400 H   0  0  0  0  0  0
   -2.3327    1.4746    1.7027 H   0  0  0  0  0  0
   -3.0559    0.8531    3.1852 H   0  0  0  0  0  0
   -3.1047   -0.8997    1.5133 H   0  0  0  0  0  0
   -1.9965   -1.3661    2.8040 H   0  0  0  0  0  0
   -0.0772   -0.6236    1.4213 H   0  0  0  0  0  0
   -1.1785   -0.1531    0.1246 H   0  0  0  0  0  0
   -1.2248   -2.9683    1.2279 H   0  0  0  0  0  0
   -1.8290   -2.4240   -0.3065 H   0  0  0  0  0  0
    0.1275   -3.8697   -0.3092 H   0  0  0  0  0  0
    2.1919   -3.5735    0.5304 H   0  0  0  0  0  0
    1.1910   -2.8317    1.7653 H   0  0  0  0  0  0
    1.8371   -0.5325    0.7536 H   0  0  0  0  0  0
    2.9266   -1.4098   -0.3233 H   0  0  0  0  0  0
    3.1682   -1.4761    1.4190 H   0  0  0  0  0  0
    0.1416   -1.5747   -3.3824 H   0  0  0  0  0  0
   -1.0566   -1.4102   -2.1310 H   0  0  0  0  0  0
    0.1131    3.4400   -0.2692 H   0  0  0  0  0  0
    1.4349    4.0719   -1.2475 H   0  0  0  0  0  0
   -1.4214    3.5658   -2.2512 H   0  0  0  0  0  0
   -0.7031    5.1417   -1.8771 H   0  0  0  0  0  0
   -0.0890    4.1827   -3.2374 H   0  0  0  0  0  0
    3.0403    1.9549   -2.3219 H   0  0  0  0  0  0
    0.7941   -2.4644   -1.6273 N   0  3  0  0  0  0
    1.7782   -2.1760   -1.5759 H   0  0  0  0  0  0
    0.7161   -3.3150   -2.1969 H   0  0  0  0  0  0
  1  2  1  0  0  0
  1 17  1  0  0  0
  1 18  1  0  0  0
  1 19  1  0  0  0
  2  3  1  0  0  0
  2 20  1  0  0  0
  2 21  1  0  0  0
  3  4  1  0  0  0
  3 22  1  0  0  0
  3 23  1  0  0  0
  4  5  1  0  0  0
  4 24  1  0  0  0
  4 25  1  0  0  0
  5  6  1  0  0  0
  5 26  1  0  0  0
  5 27  1  0  0  0
  6  7  1  0  0  0
  6 28  1  0  0  0
  6 42  1  0  0  0
  7  8  1  0  0  0
  7 29  1  0  0  0
  7 30  1  0  0  0
  8 31  1  0  0  0
  8 32  1  0  0  0
  8 33  1  0  0  0
  9 10  1  0  0  0
  9 34  1  0  0  0
  9 35  1  0  0  0
  9 42  1  0  0  0
 10 11  2  0  0  0
 10 16  1  0  0  0
 11 12  1  0  0  0
 12 13  1  0  0  0
 12 15  2  0  0  0
 13 14  1  0  0  0
 13 36  1  0  0  0
 13 37  1  0  0  0
 14 38  1  0  0  0
 14 39  1  0  0  0
 14 40  1  0  0  0
 15 16  1  0  0  0
 15 41  1  0  0  0
 42 43  1  0  0  0
 42 44  1  0  0  0
M  CHG  1  42   1
M  END
> <energy>
46.4565

> <chiral flag>
0

> <version>
0

> <i_ionizer_Ion_state_n>
1

> <i_ionizer_Tot_Q>
1

> <s_ionizer_Ion_centers>
42

> <s_ionizer_Ion_types>
N5

> <s_ionizer_Ion_ctrs_in>
9

> <r_ionizer_Ionization_penalty>
0.000148807

> <r_ionizer_Ionization_penalty_charging>
0.000148807

> <r_ionizer_Ionization_penalty_neutral>
0

$$$$
ZINC001258431307
                    3D
 Structure written by MMmdl.
 38 38  0  0  1  0            999 V2000
    3.9243    0.8101   -1.4578 C   0  0  0  0  0  0
    3.1127    0.6519   -0.1809 C   0  0  0  0  0  0
    2.0136   -0.3943   -0.3491 C   0  0  0  0  0  0
    1.2698   -0.6375    0.9683 C   0  0  0  0  0  0
    0.1395   -1.6668    0.8163 C   0  0  0  0  0  0
   -1.1398   -1.0967    0.1638 C   0  0  1  0  0  0
   -2.0056   -2.2147   -0.4586 C   0  0  0  0  0  0
   -1.4389   -2.7359   -1.7740 C   0  0  0  0  0  0
   -2.6952    0.7267    0.7058 C   0  0  0  0  0  0
   -1.9086    1.9936    0.7254 C   0  0  0  0  0  0
   -1.3730    2.6551    1.8157 C   0  0  0  0  0  0
   -0.7264    3.8432    1.5420 N   0  0  0  0  0  0
   -0.7638    4.0627    0.2461 C   0  0  0  0  0  0
   -1.5783    2.8868   -0.6994 S   0  0  0  0  0  0
    3.2773    1.0863   -2.2970 H   0  0  0  0  0  0
    4.6800    1.5938   -1.3362 H   0  0  0  0  0  0
    4.4428   -0.1232   -1.7100 H   0  0  0  0  0  0
    2.6615    1.6165    0.0826 H   0  0  0  0  0  0
    3.7849    0.3704    0.6374 H   0  0  0  0  0  0
    2.4583   -1.3366   -0.6903 H   0  0  0  0  0  0
    1.3189   -0.0645   -1.1287 H   0  0  0  0  0  0
    1.9883   -1.0166    1.7075 H   0  0  0  0  0  0
    0.8840    0.3086    1.3652 H   0  0  0  0  0  0
    0.5186   -2.5209    0.2501 H   0  0  0  0  0  0
   -0.1026   -2.0617    1.8122 H   0  0  0  0  0  0
   -0.8552   -0.3875   -0.6212 H   0  0  0  0  0  0
   -2.1136   -3.0475    0.2472 H   0  0  0  0  0  0
   -3.0184   -1.8429   -0.6596 H   0  0  0  0  0  0
   -2.1595   -3.4073   -2.2487 H   0  0  0  0  0  0
   -1.2334   -1.9150   -2.4701 H   0  0  0  0  0  0
   -0.5171   -3.3003   -1.6194 H   0  0  0  0  0  0
   -3.5543    0.8740    1.3729 H   0  0  0  0  0  0
   -3.1217    0.5131   -0.2821 H   0  0  0  0  0  0
   -1.4309    2.3026    2.8383 H   0  0  0  0  0  0
   -0.3039    4.9318   -0.2043 H   0  0  0  0  0  0
   -1.9043   -0.4048    1.2415 N   0  3  0  0  0  0
   -2.5418   -1.0777    1.6830 H   0  0  0  0  0  0
   -1.2443   -0.0480    1.9424 H   0  0  0  0  0  0
  1  2  1  0  0  0
  1 15  1  0  0  0
  1 16  1  0  0  0
  1 17  1  0  0  0
  2  3  1  0  0  0
  2 18  1  0  0  0
  2 19  1  0  0  0
  3  4  1  0  0  0
  3 20  1  0  0  0
  3 21  1  0  0  0
  4  5  1  0  0  0
  4 22  1  0  0  0
  4 23  1  0  0  0
  5  6  1  0  0  0
  5 24  1  0  0  0
  5 25  1  0  0  0
  6  7  1  0  0  0
  6 26  1  0  0  0
  6 36  1  0  0  0
  7  8  1  0  0  0
  7 27  1  0  0  0
  7 28  1  0  0  0
  8 29  1  0  0  0
  8 30  1  0  0  0
  8 31  1  0  0  0
  9 10  1  0  0  0
  9 32  1  0  0  0
  9 33  1  0  0  0
  9 36  1  0  0  0
 10 11  2  0  0  0
 10 14  1  0  0  0
 11 12  1  0  0  0
 11 34  1  0  0  0
 12 13  2  0  0  0
 13 14  1  0  0  0
 13 35  1  0  0  0
 36 37  1  0  0  0
 36 38  1  0  0  0
M  CHG  1  36   1
M  END
> <energy>
3.69323

> <chiral flag>
0

> <version>
0

> <i_ionizer_Ion_state_n>
1

> <i_ionizer_Tot_Q>
1

> <s_ionizer_Ion_centers>
36

> <s_ionizer_Ion_types>
N5

> <s_ionizer_Ion_ctrs_in>
9

> <r_ionizer_Ionization_penalty>
0.000148807

> <r_ionizer_Ionization_penalty_charging>
0.000148807

> <r_ionizer_Ionization_penalty_neutral>
0

$$$$
ZINC001258431308
                    3D
 Structure written by MMmdl.
 38 38  0  0  1  0            999 V2000
   -2.9974    3.2871    1.3598 C   0  0  0  0  0  0
   -1.8402    2.4375    0.8390 C   0  0  0  0  0  0
   -1.8959    2.0789   -0.6576 C   0  0  0  0  0  0
   -0.7447    1.1338   -1.0443 C   0  0  0  0  0  0
   -1.1408   -0.3486   -0.8466 C   0  0  0  0  0  0
   -0.1221   -1.3879   -1.3889 C   0  0  2  0  0  0
   -0.5534   -2.8637   -1.0947 C   0  0  0  0  0  0
   -1.0737   -3.2249    0.2956 C   0  0  0  0  0  0
    1.6527   -1.2395    0.3392 C   0  0  0  0  0  0
    2.9290   -0.4976    0.6115 C   0  0  0  0  0  0
    3.1311    0.8734    0.6964 C   0  0  0  0  0  0
    4.4398    1.2737    0.9132 N   0  0  0  0  0  0
    5.2011    0.2123    1.0145 C   0  0  0  0  0  0
    4.4100   -1.3129    0.9017 S   0  0  0  0  0  0
   -3.9626    2.9608    0.9597 H   0  0  0  0  0  0
   -2.8585    4.3428    1.1108 H   0  0  0  0  0  0
   -3.0288    3.2209    2.4571 H   0  0  0  0  0  0
   -0.9146    2.9905    1.0394 H   0  0  0  0  0  0
   -1.8152    1.5161    1.4239 H   0  0  0  0  0  0
   -2.8528    1.6098   -0.8986 H   0  0  0  0  0  0
   -1.8500    2.9831   -1.2701 H   0  0  0  0  0  0
   -0.4404    1.3092   -2.0811 H   0  0  0  0  0  0
    0.1395    1.3617   -0.4373 H   0  0  0  0  0  0
   -2.0939   -0.5146   -1.3571 H   0  0  0  0  0  0
   -1.3149   -0.5239    0.2201 H   0  0  0  0  0  0
   -0.1412   -1.2968   -2.4857 H   0  0  0  0  0  0
   -1.3578   -3.1147   -1.8042 H   0  0  0  0  0  0
    0.2732   -3.5379   -1.3455 H   0  0  0  0  0  0
   -0.3490   -3.0105    1.0820 H   0  0  0  0  0  0
   -2.0070   -2.6915    0.5190 H   0  0  0  0  0  0
   -1.2983   -4.2986    0.3541 H   0  0  0  0  0  0
    0.8889   -0.8391    1.0180 H   0  0  0  0  0  0
    1.7699   -2.3007    0.5651 H   0  0  0  0  0  0
    2.3604    1.6270    0.5670 H   0  0  0  0  0  0
    6.2771    0.2818    1.1463 H   0  0  0  0  0  0
    1.2857   -1.0154   -1.0751 N   0  3  0  0  0  0
    1.9101   -1.5770   -1.6658 H   0  0  0  0  0  0
    1.4145   -0.0198   -1.2905 H   0  0  0  0  0  0
  1  2  1  0  0  0
  1 15  1  0  0  0
  1 16  1  0  0  0
  1 17  1  0  0  0
  2  3  1  0  0  0
  2 18  1  0  0  0
  2 19  1  0  0  0
  3  4  1  0  0  0
  3 20  1  0  0  0
  3 21  1  0  0  0
  4  5  1  0  0  0
  4 22  1  0  0  0
  4 23  1  0  0  0
  5  6  1  0  0  0
  5 24  1  0  0  0
  5 25  1  0  0  0
  6  7  1  0  0  0
  6 26  1  0  0  0
  6 36  1  0  0  0
  7  8  1  0  0  0
  7 27  1  0  0  0
  7 28  1  0  0  0
  8 29  1  0  0  0
  8 30  1  0  0  0
  8 31  1  0  0  0
  9 10  1  0  0  0
  9 32  1  0  0  0
  9 33  1  0  0  0
  9 36  1  0  0  0
 10 11  2  0  0  0
 10 14  1  0  0  0
 11 12  1  0  0  0
 11 34  1  0  0  0
 12 13  2  0  0  0
 13 14  1  0  0  0
 13 35  1  0  0  0
 36 37  1  0  0  0
 36 38  1  0  0  0
M  CHG  1  36   1
M  END
> <energy>
9.24241

> <chiral flag>
0

> <version>
0

> <i_ionizer_Ion_state_n>
1

> <i_ionizer_Tot_Q>
1

> <s_ionizer_Ion_centers>
36

> <s_ionizer_Ion_types>
N5

> <s_ionizer_Ion_ctrs_in>
9

> <r_ionizer_Ionization_penalty>
0.000148807

> <r_ionizer_Ionization_penalty_charging>
0.000148807

> <r_ionizer_Ionization_penalty_neutral>
0

$$$$
ZINC001258431358
                    3D
 Structure written by MMmdl.
 44 44  0  0  1  0            999 V2000
   -4.8790    0.0335    1.0088 C   0  0  0  0  0  0
   -3.8832    1.1843    0.9089 C   0  0  0  0  0  0
   -2.7816    0.9480   -0.1313 C   0  0  0  0  0  0
   -1.7216   -0.0652    0.3247 C   0  0  0  0  0  0
   -0.7274   -0.3835   -0.8047 C   0  0  0  0  0  0
    0.4860   -1.2444   -0.3420 C   0  0  1  0  0  0
    1.2299   -1.8838   -1.5416 C   0  0  0  0  0  0
    0.4710   -3.0673   -2.1399 C   0  0  0  0  0  0
    1.4023   -0.4883    0.5734 N   0  0  0  0  0  0
    2.3031   -1.2121    1.3282 C   0  0  0  0  0  0
    1.7742   -1.5959    2.5185 N   0  0  0  0  0  0
    1.8216    0.7845    0.1237 C   0  0  0  0  0  0
    1.3240    1.9082    0.8035 C   0  0  0  0  0  0
    1.6807    3.1998    0.4144 C   0  0  0  0  0  0
    2.5391    3.3801   -0.6658 C   0  0  0  0  0  0
    3.0670    2.2734   -1.3335 C   0  0  0  0  0  0
    2.7215    0.9815   -0.9327 C   0  0  0  0  0  0
   -4.4032   -0.8940    1.3399 H   0  0  0  0  0  0
   -5.6621    0.2787    1.7352 H   0  0  0  0  0  0
   -5.3709   -0.1548    0.0483 H   0  0  0  0  0  0
   -3.4345    1.3764    1.8913 H   0  0  0  0  0  0
   -4.4337    2.0918    0.6260 H   0  0  0  0  0  0
   -2.2795    1.9046   -0.3278 H   0  0  0  0  0  0
   -3.2311    0.6299   -1.0794 H   0  0  0  0  0  0
   -1.2033    0.3337    1.2036 H   0  0  0  0  0  0
   -2.2029   -0.9970    0.6386 H   0  0  0  0  0  0
   -0.3851    0.5455   -1.2688 H   0  0  0  0  0  0
   -1.2855   -0.9123   -1.5854 H   0  0  0  0  0  0
    0.0728   -2.0667    0.2591 H   0  0  0  0  0  0
    1.4078   -1.1411   -2.3316 H   0  0  0  0  0  0
    2.2121   -2.2573   -1.2233 H   0  0  0  0  0  0
    1.0396   -3.4917   -2.9714 H   0  0  0  0  0  0
   -0.5103   -2.7799   -2.5224 H   0  0  0  0  0  0
    0.3339   -3.8593   -1.3980 H   0  0  0  0  0  0
    4.0988   -2.0274    1.6812 H   0  0  0  0  0  0
    2.4407   -1.5422    3.2781 H   0  0  0  0  0  0
    0.9442   -1.0602    2.7410 H   0  0  0  0  0  0
    0.6467    1.7724    1.6410 H   0  0  0  0  0  0
    1.2791    4.0501    0.9508 H   0  0  0  0  0  0
    2.8033    4.3830   -0.9816 H   0  0  0  0  0  0
    3.7507    2.4119   -2.1667 H   0  0  0  0  0  0
    3.1749    0.1304   -1.4360 H   0  0  0  0  0  0
    3.5273   -1.4713    1.0386 N   0  3  0  0  0  0
    3.9329   -1.1211    0.1627 H   0  0  0  0  0  0
  1  2  1  0  0  0
  1 18  1  0  0  0
  1 19  1  0  0  0
  1 20  1  0  0  0
  2  3  1  0  0  0
  2 21  1  0  0  0
  2 22  1  0  0  0
  3  4  1  0  0  0
  3 23  1  0  0  0
  3 24  1  0  0  0
  4  5  1  0  0  0
  4 25  1  0  0  0
  4 26  1  0  0  0
  5  6  1  0  0  0
  5 27  1  0  0  0
  5 28  1  0  0  0
  6  7  1  0  0  0
  6  9  1  0  0  0
  6 29  1  0  0  0
  7  8  1  0  0  0
  7 30  1  0  0  0
  7 31  1  0  0  0
  8 32  1  0  0  0
  8 33  1  0  0  0
  8 34  1  0  0  0
  9 10  1  0  0  0
  9 12  1  0  0  0
 10 11  1  0  0  0
 10 43  2  0  0  0
 11 36  1  0  0  0
 11 37  1  0  0  0
 12 13  2  0  0  0
 12 17  1  0  0  0
 13 14  1  0  0  0
 13 38  1  0  0  0
 14 15  2  0  0  0
 14 39  1  0  0  0
 15 16  1  0  0  0
 15 40  1  0  0  0
 16 17  2  0  0  0
 16 41  1  0  0  0
 17 42  1  0  0  0
 35 43  1  0  0  0
 43 44  1  0  0  0
M  CHG  1  43   1
M  END
> <energy>
-62.5374

> <chiral flag>
0

> <version>
0

> <i_ionizer_Ion_state_n>
1

> <i_ionizer_Tot_Q>
1

> <s_ionizer_Ion_centers>
43

> <s_ionizer_Ion_types>
N4

> <s_ionizer_Ion_ctrs_in>
11

> <r_ionizer_Ionization_penalty>
4.70626e-06

> <r_ionizer_Ionization_penalty_charging>
4.70626e-06

> <r_ionizer_Ionization_penalty_neutral>
0

$$$$
ZINC001258431359
                    3D
 Structure written by MMmdl.
 44 44  0  0  1  0            999 V2000
   -4.2568    2.0413   -0.9575 C   0  0  0  0  0  0
   -3.1708    2.0659    0.1130 C   0  0  0  0  0  0
   -1.8920    1.3579   -0.3337 C   0  0  0  0  0  0
   -2.0484   -0.1610   -0.4150 C   0  0  0  0  0  0
   -0.8467   -0.8434   -1.0787 C   0  0  0  0  0  0
    0.3052   -1.3039   -0.1481 C   0  0  2  0  0  0
   -0.0618   -2.5460    0.6993 C   0  0  0  0  0  0
   -0.1523   -3.8306   -0.1238 C   0  0  0  0  0  0
    0.9033   -0.1754    0.6353 N   0  0  0  0  0  0
    0.7112    0.1271    1.9709 C   0  0  0  0  0  0
   -0.2963   -0.4704    2.6422 N   0  0  0  0  0  0
    2.1024    0.2790   -0.0030 C   0  0  0  0  0  0
    2.0380    1.1703   -1.0816 C   0  0  0  0  0  0
    3.2054    1.6811   -1.6479 C   0  0  0  0  0  0
    4.4503    1.3089   -1.1368 C   0  0  0  0  0  0
    4.5328    0.4061   -0.0782 C   0  0  0  0  0  0
    3.3649   -0.1129    0.4825 C   0  0  0  0  0  0
   -3.8982    2.4838   -1.8908 H   0  0  0  0  0  0
   -4.5919    1.0231   -1.1716 H   0  0  0  0  0  0
   -5.1287    2.6134   -0.6300 H   0  0  0  0  0  0
   -3.5508    1.6251    1.0422 H   0  0  0  0  0  0
   -2.9232    3.1110    0.3360 H   0  0  0  0  0  0
   -1.5739    1.7545   -1.3038 H   0  0  0  0  0  0
   -1.0949    1.6108    0.3720 H   0  0  0  0  0  0
   -2.2502   -0.5871    0.5683 H   0  0  0  0  0  0
   -2.9273   -0.4005   -1.0208 H   0  0  0  0  0  0
   -0.4479   -0.1885   -1.8635 H   0  0  0  0  0  0
   -1.2257   -1.7234   -1.6218 H   0  0  0  0  0  0
    1.0711   -1.6693   -0.8488 H   0  0  0  0  0  0
   -1.0238   -2.4218    1.2152 H   0  0  0  0  0  0
    0.7020   -2.7157    1.4684 H   0  0  0  0  0  0
    0.7552   -3.9923   -0.7094 H   0  0  0  0  0  0
   -1.0115   -3.8199   -0.8006 H   0  0  0  0  0  0
   -0.2646   -4.6916    0.5423 H   0  0  0  0  0  0
    2.1383    1.5150    2.2677 H   0  0  0  0  0  0
   -1.1890   -0.2408    2.2335 H   0  0  0  0  0  0
   -0.2898   -0.1142    3.5956 H   0  0  0  0  0  0
    1.0755    1.5044   -1.4624 H   0  0  0  0  0  0
    3.1433    2.3937   -2.4685 H   0  0  0  0  0  0
    5.3556    1.7280   -1.5609 H   0  0  0  0  0  0
    5.4978    0.1226    0.3221 H   0  0  0  0  0  0
    3.4346   -0.7979    1.3241 H   0  0  0  0  0  0
    1.3738    0.9818    2.6865 N   0  3  0  0  0  0
    1.1304    1.1226    3.6740 H   0  0  0  0  0  0
  1  2  1  0  0  0
  1 18  1  0  0  0
  1 19  1  0  0  0
  1 20  1  0  0  0
  2  3  1  0  0  0
  2 21  1  0  0  0
  2 22  1  0  0  0
  3  4  1  0  0  0
  3 23  1  0  0  0
  3 24  1  0  0  0
  4  5  1  0  0  0
  4 25  1  0  0  0
  4 26  1  0  0  0
  5  6  1  0  0  0
  5 27  1  0  0  0
  5 28  1  0  0  0
  6  7  1  0  0  0
  6  9  1  0  0  0
  6 29  1  0  0  0
  7  8  1  0  0  0
  7 30  1  0  0  0
  7 31  1  0  0  0
  8 32  1  0  0  0
  8 33  1  0  0  0
  8 34  1  0  0  0
  9 10  1  0  0  0
  9 12  1  0  0  0
 10 11  1  0  0  0
 10 43  2  0  0  0
 11 36  1  0  0  0
 11 37  1  0  0  0
 12 13  2  0  0  0
 12 17  1  0  0  0
 13 14  1  0  0  0
 13 38  1  0  0  0
 14 15  2  0  0  0
 14 39  1  0  0  0
 15 16  1  0  0  0
 15 40  1  0  0  0
 16 17  2  0  0  0
 16 41  1  0  0  0
 17 42  1  0  0  0
 35 43  1  0  0  0
 43 44  1  0  0  0
M  CHG  1  43   1
M  END
> <energy>
-66.2035

> <chiral flag>
0

> <version>
0

> <i_ionizer_Ion_state_n>
1

> <i_ionizer_Tot_Q>
1

> <s_ionizer_Ion_centers>
43

> <s_ionizer_Ion_types>
N4

> <s_ionizer_Ion_ctrs_in>
11

> <r_ionizer_Ionization_penalty>
4.70626e-06

> <r_ionizer_Ionization_penalty_charging>
4.70626e-06

> <r_ionizer_Ionization_penalty_neutral>
0

$$$$
ZINC001258431699
                    3D
 Structure written by MMmdl.
 51 51  0  0  1  0            999 V2000
   -5.7564    0.5648   -0.5685 C   0  0  0  0  0  0
   -4.5943    0.4520    0.4036 C   0  0  0  0  0  0
   -3.4949   -0.4598   -0.1396 C   0  0  0  0  0  0
   -2.3046   -0.5162    0.8206 C   0  0  0  0  0  0
   -1.1696   -1.3775    0.2525 C   0  0  0  0  0  0
    0.0891   -1.4100    1.1557 C   0  0  1  0  0  0
    1.1410   -2.4490    0.6942 C   0  0  0  0  0  0
    1.3422   -2.6167   -0.8052 C   0  0  0  0  0  0
    1.1689   -0.1033    2.9057 C   0  0  0  0  0  0
    1.3322    0.8166    0.6524 C   0  0  1  0  0  0
    2.8308    0.5000    0.4556 C   0  0  0  0  0  0
    3.5390    1.5926   -0.3566 C   0  0  0  0  0  0
    2.8550    1.8959   -1.6933 C   0  0  2  0  0  0
    1.3707    2.2039   -1.4785 C   0  0  0  0  0  0
    0.6475    1.1034   -0.6964 C   0  0  0  0  0  0
   -6.2008   -0.4159   -0.7634 H   0  0  0  0  0  0
   -6.5342    1.2156   -0.1559 H   0  0  0  0  0  0
   -5.4300    0.9900   -1.5226 H   0  0  0  0  0  0
   -4.9594    0.0629    1.3606 H   0  0  0  0  0  0
   -4.1897    1.4526    0.5957 H   0  0  0  0  0  0
   -3.1620   -0.0873   -1.1163 H   0  0  0  0  0  0
   -3.8934   -1.4697   -0.2952 H   0  0  0  0  0  0
   -2.6265   -0.9244    1.7860 H   0  0  0  0  0  0
   -1.9514    0.5042    1.0043 H   0  0  0  0  0  0
   -1.5446   -2.4046    0.1449 H   0  0  0  0  0  0
   -0.9312   -1.0445   -0.7591 H   0  0  0  0  0  0
   -0.3075   -1.8454    2.0859 H   0  0  0  0  0  0
    2.1072   -2.2556    1.1737 H   0  0  0  0  0  0
    0.8304   -3.4292    1.0828 H   0  0  0  0  0  0
    2.1255   -3.3580   -0.9935 H   0  0  0  0  0  0
    0.4318   -2.9788   -1.2917 H   0  0  0  0  0  0
    1.6450   -1.6919   -1.2941 H   0  0  0  0  0  0
    0.4437   -0.4788    3.6365 H   0  0  0  0  0  0
    2.0665   -0.7277    2.9603 H   0  0  0  0  0  0
    1.4338    0.9044    3.2470 H   0  0  0  0  0  0
    1.3112    1.7920    1.1643 H   0  0  0  0  0  0
    3.3424    0.4218    1.4215 H   0  0  0  0  0  0
    2.9712   -0.4594   -0.0465 H   0  0  0  0  0  0
    3.5628    2.5131    0.2420 H   0  0  0  0  0  0
    4.5858    1.3072   -0.5185 H   0  0  0  0  0  0
    3.3342    2.7700   -2.1483 H   0  0  0  0  0  0
    4.0018    0.6274   -2.8202 H   0  0  0  0  0  0
    1.2771    3.1509   -0.9314 H   0  0  0  0  0  0
    0.8684    2.3574   -2.4417 H   0  0  0  0  0  0
   -0.3877    1.4239   -0.5355 H   0  0  0  0  0  0
    0.6199    0.2094   -1.3220 H   0  0  0  0  0  0
    0.4821   -0.0058    1.6221 N   0  3  1  0  0  0
   -0.3911    0.5150    1.7656 H   0  0  0  0  0  0
    3.0094    0.7671   -2.6116 N   0  3  0  0  0  0
    2.6290   -0.0818   -2.1768 H   0  0  0  0  0  0
    2.5016    0.9627   -3.4822 H   0  0  0  0  0  0
  1  2  1  0  0  0
  1 16  1  0  0  0
  1 17  1  0  0  0
  1 18  1  0  0  0
  2  3  1  0  0  0
  2 19  1  0  0  0
  2 20  1  0  0  0
  3  4  1  0  0  0
  3 21  1  0  0  0
  3 22  1  0  0  0
  4  5  1  0  0  0
  4 23  1  0  0  0
  4 24  1  0  0  0
  5  6  1  0  0  0
  5 25  1  0  0  0
  5 26  1  0  0  0
  6  7  1  0  0  0
  6 27  1  0  0  0
  6 47  1  0  0  0
  7  8  1  0  0  0
  7 28  1  0  0  0
  7 29  1  0  0  0
  8 30  1  0  0  0
  8 31  1  0  0  0
  8 32  1  0  0  0
  9 33  1  0  0  0
  9 34  1  0  0  0
  9 35  1  0  0  0
  9 47  1  0  0  0
 10 11  1  0  0  0
 10 15  1  0  0  0
 10 36  1  0  0  0
 10 47  1  0  0  0
 11 12  1  0  0  0
 11 37  1  0  0  0
 11 38  1  0  0  0
 12 13  1  0  0  0
 12 39  1  0  0  0
 12 40  1  0  0  0
 13 14  1  0  0  0
 13 41  1  0  0  0
 13 49  1  0  0  0
 14 15  1  0  0  0
 14 43  1  0  0  0
 14 44  1  0  0  0
 15 45  1  0  0  0
 15 46  1  0  0  0
 42 49  1  0  0  0
 47 48  1  0  0  0
 49 50  1  0  0  0
 49 51  1  0  0  0
M  CHG  2  47   1  49   1
M  END
> <energy>
19.1734

> <chiral flag>
0

> <version>
0

> <i_ionizer_Ion_state_n>
3

> <i_ionizer_Tot_Q>
2

> <s_ionizer_Ion_centers>
47_49

> <s_ionizer_Ion_types>
N5_N5

> <s_ionizer_Ion_ctrs_in>
9_15

> <r_ionizer_Ionization_penalty>
0.00195683

> <r_ionizer_Ionization_penalty_charging>
0.00195683

> <r_ionizer_Ionization_penalty_neutral>
0

$$$$
ZINC001258431702
                    3D
 Structure written by MMmdl.
 51 51  0  0  1  0            999 V2000
   -3.0574   -2.1467    0.3010 C   0  0  0  0  0  0
   -3.8569   -0.8968   -0.0414 C   0  0  0  0  0  0
   -2.9734    0.3012   -0.3973 C   0  0  0  0  0  0
   -2.2727    0.9099    0.8214 C   0  0  0  0  0  0
   -1.4728    2.1774    0.4766 C   0  0  0  0  0  0
    0.0685    1.9616    0.3765 C   0  0  2  0  0  0
    0.7441    3.3444    0.1777 C   0  0  0  0  0  0
    2.1916    3.4004    0.6417 C   0  0  0  0  0  0
    0.1933    1.3570   -2.0018 C   0  0  0  0  0  0
    1.6354    0.1398   -0.4092 C   0  0  1  0  0  0
    1.7056   -0.4599    1.0306 C   0  0  0  0  0  0
    2.4361   -1.8025    1.0963 C   0  0  0  0  0  0
    1.7694   -2.8679    0.2072 C   0  0  2  0  0  0
    1.1059   -2.2556   -1.0347 C   0  0  0  0  0  0
    1.8567   -0.9960   -1.4509 C   0  0  0  0  0  0
   -3.7355   -2.9860    0.4871 H   0  0  0  0  0  0
   -2.3963   -2.4218   -0.5280 H   0  0  0  0  0  0
   -2.4476   -2.0055    1.1969 H   0  0  0  0  0  0
   -4.5051   -1.1226   -0.8964 H   0  0  0  0  0  0
   -4.5164   -0.6408    0.7964 H   0  0  0  0  0  0
   -2.2426    0.0015   -1.1553 H   0  0  0  0  0  0
   -3.6069    1.0682   -0.8568 H   0  0  0  0  0  0
   -3.0458    1.1788    1.5521 H   0  0  0  0  0  0
   -1.6295    0.1731    1.3143 H   0  0  0  0  0  0
   -1.8679    2.6557   -0.4284 H   0  0  0  0  0  0
   -1.6535    2.8945    1.2896 H   0  0  0  0  0  0
    0.3524    1.6103    1.3762 H   0  0  0  0  0  0
    0.1978    4.0931    0.7646 H   0  0  0  0  0  0
    0.6696    3.6771   -0.8631 H   0  0  0  0  0  0
    2.2941    2.9987    1.6576 H   0  0  0  0  0  0
    2.5326    4.4411    0.6527 H   0  0  0  0  0  0
    2.8652    2.8555   -0.0231 H   0  0  0  0  0  0
   -0.6702    2.0212   -2.1240 H   0  0  0  0  0  0
   -0.0355    0.5080   -2.6543 H   0  0  0  0  0  0
    1.0727    1.8789   -2.3956 H   0  0  0  0  0  0
    2.4882    0.8151   -0.5317 H   0  0  0  0  0  0
    0.6981   -0.6130    1.4353 H   0  0  0  0  0  0
    2.2047    0.2561    1.6932 H   0  0  0  0  0  0
    3.4734   -1.6601    0.7695 H   0  0  0  0  0  0
    2.4987   -2.1474    2.1338 H   0  0  0  0  0  0
    2.5474   -3.5681   -0.1222 H   0  0  0  0  0  0
    1.2332   -4.1822    1.6757 H   0  0  0  0  0  0
    0.0569   -1.9990   -0.8382 H   0  0  0  0  0  0
    1.0983   -2.9863   -1.8515 H   0  0  0  0  0  0
    2.9314   -1.2208   -1.5092 H   0  0  0  0  0  0
    1.5925   -0.7108   -2.4735 H   0  0  0  0  0  0
    0.3010    0.8433   -0.6187 N   0  3  1  0  0  0
   -0.4408    0.1468   -0.4815 H   0  0  0  0  0  0
    0.7690   -3.6338    0.9500 N   0  3  0  0  0  0
    0.0972   -2.9898    1.3838 H   0  0  0  0  0  0
    0.2738   -4.2638    0.3081 H   0  0  0  0  0  0
  1  2  1  0  0  0
  1 16  1  0  0  0
  1 17  1  0  0  0
  1 18  1  0  0  0
  2  3  1  0  0  0
  2 19  1  0  0  0
  2 20  1  0  0  0
  3  4  1  0  0  0
  3 21  1  0  0  0
  3 22  1  0  0  0
  4  5  1  0  0  0
  4 23  1  0  0  0
  4 24  1  0  0  0
  5  6  1  0  0  0
  5 25  1  0  0  0
  5 26  1  0  0  0
  6  7  1  0  0  0
  6 27  1  0  0  0
  6 47  1  0  0  0
  7  8  1  0  0  0
  7 28  1  0  0  0
  7 29  1  0  0  0
  8 30  1  0  0  0
  8 31  1  0  0  0
  8 32  1  0  0  0
  9 33  1  0  0  0
  9 34  1  0  0  0
  9 35  1  0  0  0
  9 47  1  0  0  0
 10 11  1  0  0  0
 10 15  1  0  0  0
 10 36  1  0  0  0
 10 47  1  0  0  0
 11 12  1  0  0  0
 11 37  1  0  0  0
 11 38  1  0  0  0
 12 13  1  0  0  0
 12 39  1  0  0  0
 12 40  1  0  0  0
 13 14  1  0  0  0
 13 41  1  0  0  0
 13 49  1  0  0  0
 14 15  1  0  0  0
 14 43  1  0  0  0
 14 44  1  0  0  0
 15 45  1  0  0  0
 15 46  1  0  0  0
 42 49  1  0  0  0
 47 48  1  0  0  0
 49 50  1  0  0  0
 49 51  1  0  0  0
M  CHG  2  47   1  49   1
M  END
> <energy>
25.128

> <chiral flag>
0

> <version>
0

> <i_ionizer_Ion_state_n>
3

> <i_ionizer_Tot_Q>
2

> <s_ionizer_Ion_centers>
47_49

> <s_ionizer_Ion_types>
N5_N5

> <s_ionizer_Ion_ctrs_in>
9_15

> <r_ionizer_Ionization_penalty>
0.00195683

> <r_ionizer_Ionization_penalty_charging>
0.00195683

> <r_ionizer_Ionization_penalty_neutral>
0

$$$$
ZINC001258431739
                    3D
 Structure written by MMmdl.
 46 46  0  0  1  0            999 V2000
   -2.9143    1.6740    2.1862 C   0  0  0  0  0  0
   -3.3616    0.4695    2.9989 C   0  0  0  0  0  0
   -3.2977   -0.8799    2.2786 C   0  0  0  0  0  0
   -1.9037   -1.4933    2.0919 C   0  0  0  0  0  0
   -1.1270   -0.8749    0.9274 C   0  0  0  0  0  0
    0.0499   -1.7111    0.3500 C   0  0  2  0  0  0
    0.9527   -2.2383    1.4943 C   0  0  0  0  0  0
    2.2130   -2.9865    1.0624 C   0  0  0  0  0  0
    0.0757   -0.2282   -1.6416 C   0  0  0  0  0  0
    0.9332    0.6891   -2.5039 C   0  0  0  0  0  0
    0.7647    0.6363   -3.9019 C   0  0  0  0  0  0
    1.4391    1.5255   -4.7459 C   0  0  0  0  0  0
    2.2904    2.4832   -4.1959 C   0  0  0  0  0  0
    2.4791    2.5394   -2.8184 C   0  0  0  0  0  0
    1.8048    1.6604   -1.9468 C   0  0  0  0  0  0
    2.0912    1.7271   -0.4611 C   0  0  0  0  0  0
    2.5267    3.0228   -0.0513 O   0  0  0  0  0  0
   -3.3482    1.6696    1.1815 H   0  0  0  0  0  0
   -3.2358    2.5941    2.6933 H   0  0  0  0  0  0
   -1.8262    1.7253    2.1025 H   0  0  0  0  0  0
   -2.7924    0.4296    3.9344 H   0  0  0  0  0  0
   -4.4098    0.6437    3.2842 H   0  0  0  0  0  0
   -3.8156   -0.8178    1.3138 H   0  0  0  0  0  0
   -3.8801   -1.5873    2.8825 H   0  0  0  0  0  0
   -1.3265   -1.4081    3.0155 H   0  0  0  0  0  0
   -2.0303   -2.5651    1.9013 H   0  0  0  0  0  0
   -0.7388    0.0983    1.2390 H   0  0  0  0  0  0
   -1.8472   -0.6946    0.1250 H   0  0  0  0  0  0
   -0.3635   -2.5682   -0.1964 H   0  0  0  0  0  0
    1.2439   -1.4025    2.1456 H   0  0  0  0  0  0
    0.3674   -2.9411    2.1018 H   0  0  0  0  0  0
    2.7757   -3.3012    1.9490 H   0  0  0  0  0  0
    1.9623   -3.8889    0.4949 H   0  0  0  0  0  0
    2.8856   -2.3636    0.4643 H   0  0  0  0  0  0
   -0.4272   -0.9827   -2.2653 H   0  0  0  0  0  0
   -0.6995    0.4248   -1.2176 H   0  0  0  0  0  0
    0.1003   -0.0972   -4.3536 H   0  0  0  0  0  0
    1.2993    1.4774   -5.8232 H   0  0  0  0  0  0
    2.8189    3.1809   -4.8431 H   0  0  0  0  0  0
    3.1612    3.2828   -2.4090 H   0  0  0  0  0  0
    1.1997    1.5100    0.1312 H   0  0  0  0  0  0
    2.8853    1.0108   -0.2236 H   0  0  0  0  0  0
    2.6389    2.9711    0.9125 H   0  0  0  0  0  0
    0.8905   -0.9071   -0.5955 N   0  3  0  0  0  0
    1.3996   -0.1943   -0.0598 H   0  0  0  0  0  0
    1.5613   -1.5339   -1.0551 H   0  0  0  0  0  0
  1  2  1  0  0  0
  1 18  1  0  0  0
  1 19  1  0  0  0
  1 20  1  0  0  0
  2  3  1  0  0  0
  2 21  1  0  0  0
  2 22  1  0  0  0
  3  4  1  0  0  0
  3 23  1  0  0  0
  3 24  1  0  0  0
  4  5  1  0  0  0
  4 25  1  0  0  0
  4 26  1  0  0  0
  5  6  1  0  0  0
  5 27  1  0  0  0
  5 28  1  0  0  0
  6  7  1  0  0  0
  6 29  1  0  0  0
  6 44  1  0  0  0
  7  8  1  0  0  0
  7 30  1  0  0  0
  7 31  1  0  0  0
  8 32  1  0  0  0
  8 33  1  0  0  0
  8 34  1  0  0  0
  9 10  1  0  0  0
  9 35  1  0  0  0
  9 36  1  0  0  0
  9 44  1  0  0  0
 10 11  2  0  0  0
 10 15  1  0  0  0
 11 12  1  0  0  0
 11 37  1  0  0  0
 12 13  2  0  0  0
 12 38  1  0  0  0
 13 14  1  0  0  0
 13 39  1  0  0  0
 14 15  2  0  0  0
 14 40  1  0  0  0
 15 16  1  0  0  0
 16 17  1  0  0  0
 16 41  1  0  0  0
 16 42  1  0  0  0
 17 43  1  0  0  0
 44 45  1  0  0  0
 44 46  1  0  0  0
M  CHG  1  44   1
M  END
> <energy>
24.8689

> <chiral flag>
0

> <version>
0

> <i_ionizer_Ion_state_n>
1

> <i_ionizer_Tot_Q>
1

> <s_ionizer_Ion_centers>
44

> <s_ionizer_Ion_types>
N5

> <s_ionizer_Ion_ctrs_in>
9

> <r_ionizer_Ionization_penalty>
0.000148807

> <r_ionizer_Ionization_penalty_charging>
0.000148807

> <r_ionizer_Ionization_penalty_neutral>
0

$$$$
ZINC001258431740
                    3D
 Structure written by MMmdl.
 46 46  0  0  1  0            999 V2000
   -5.0392    0.7272   -0.8921 C   0  0  0  0  0  0
   -4.6237    1.3348    0.4393 C   0  0  0  0  0  0
   -3.7999    0.4028    1.3361 C   0  0  0  0  0  0
   -2.4671   -0.0270    0.7036 C   0  0  0  0  0  0
   -1.5788   -0.7794    1.7078 C   0  0  0  0  0  0
   -0.2170   -1.3318    1.2045 C   0  0  1  0  0  0
   -0.3504   -2.1607   -0.0894 C   0  0  0  0  0  0
    0.9004   -2.9586   -0.4423 C   0  0  0  0  0  0
    0.8030    0.7515    0.2466 C   0  0  0  0  0  0
    2.0181    0.8362   -0.6611 C   0  0  0  0  0  0
    1.8177    0.5872   -2.0372 C   0  0  0  0  0  0
    2.8782    0.6152   -2.9447 C   0  0  0  0  0  0
    4.1618    0.8816   -2.4922 C   0  0  0  0  0  0
    4.3792    1.1561   -1.1424 C   0  0  0  0  0  0
    3.3179    1.1553   -0.2126 C   0  0  0  0  0  0
    3.6445    1.4942    1.2252 C   0  0  0  0  0  0
    4.3821    0.4462    1.8445 O   0  0  0  0  0  0
   -5.5876   -0.2094   -0.7521 H   0  0  0  0  0  0
   -4.1691    0.5358   -1.5279 H   0  0  0  0  0  0
   -5.6901    1.4259   -1.4305 H   0  0  0  0  0  0
   -4.0483    2.2485    0.2426 H   0  0  0  0  0  0
   -5.5262    1.6367    0.9846 H   0  0  0  0  0  0
   -3.6000    0.9372    2.2731 H   0  0  0  0  0  0
   -4.3950   -0.4791    1.6023 H   0  0  0  0  0  0
   -1.9650    0.8711    0.3414 H   0  0  0  0  0  0
   -2.6715   -0.6647   -0.1620 H   0  0  0  0  0  0
   -1.3985   -0.1431    2.5857 H   0  0  0  0  0  0
   -2.1557   -1.6376    2.0793 H   0  0  0  0  0  0
    0.0882   -2.0407    1.9886 H   0  0  0  0  0  0
   -0.6263   -1.5301   -0.9427 H   0  0  0  0  0  0
   -1.1725   -2.8755    0.0487 H   0  0  0  0  0  0
    1.2536   -3.5406    0.4145 H   0  0  0  0  0  0
    1.7167   -2.3116   -0.7769 H   0  0  0  0  0  0
    0.6755   -3.6582   -1.2538 H   0  0  0  0  0  0
   -0.0819    0.6796   -0.3860 H   0  0  0  0  0  0
    0.7038    1.6928    0.7986 H   0  0  0  0  0  0
    0.8226    0.3709   -2.4173 H   0  0  0  0  0  0
    2.6999    0.4243   -3.9971 H   0  0  0  0  0  0
    4.9953    0.8886   -3.1872 H   0  0  0  0  0  0
    5.3922    1.3852   -0.8113 H   0  0  0  0  0  0
    2.7620    1.7024    1.8337 H   0  0  0  0  0  0
    4.2643    2.3990    1.2488 H   0  0  0  0  0  0
    4.8405   -0.0454    1.1457 H   0  0  0  0  0  0
    0.9272   -0.3589    1.2307 N   0  3  0  0  0  0
    0.9826    0.0488    2.1714 H   0  0  0  0  0  0
    1.7927   -0.8731    1.0290 H   0  0  0  0  0  0
  1  2  1  0  0  0
  1 18  1  0  0  0
  1 19  1  0  0  0
  1 20  1  0  0  0
  2  3  1  0  0  0
  2 21  1  0  0  0
  2 22  1  0  0  0
  3  4  1  0  0  0
  3 23  1  0  0  0
  3 24  1  0  0  0
  4  5  1  0  0  0
  4 25  1  0  0  0
  4 26  1  0  0  0
  5  6  1  0  0  0
  5 27  1  0  0  0
  5 28  1  0  0  0
  6  7  1  0  0  0
  6 29  1  0  0  0
  6 44  1  0  0  0
  7  8  1  0  0  0
  7 30  1  0  0  0
  7 31  1  0  0  0
  8 32  1  0  0  0
  8 33  1  0  0  0
  8 34  1  0  0  0
  9 10  1  0  0  0
  9 35  1  0  0  0
  9 36  1  0  0  0
  9 44  1  0  0  0
 10 11  2  0  0  0
 10 15  1  0  0  0
 11 12  1  0  0  0
 11 37  1  0  0  0
 12 13  2  0  0  0
 12 38  1  0  0  0
 13 14  1  0  0  0
 13 39  1  0  0  0
 14 15  2  0  0  0
 14 40  1  0  0  0
 15 16  1  0  0  0
 16 17  1  0  0  0
 16 41  1  0  0  0
 16 42  1  0  0  0
 17 43  1  0  0  0
 44 45  1  0  0  0
 44 46  1  0  0  0
M  CHG  1  44   1
M  END
> <energy>
26.6396

> <chiral flag>
0

> <version>
0

> <i_ionizer_Ion_state_n>
1

> <i_ionizer_Tot_Q>
1

> <s_ionizer_Ion_centers>
44

> <s_ionizer_Ion_types>
N5

> <s_ionizer_Ion_ctrs_in>
9

> <r_ionizer_Ionization_penalty>
0.000148807

> <r_ionizer_Ionization_penalty_charging>
0.000148807

> <r_ionizer_Ionization_penalty_neutral>
0

$$$$
ZINC001258431913
                    3D
 Structure written by MMmdl.
 41 41  0  0  1  0            999 V2000
   -4.6202    2.6638    0.3585 C   0  0  0  0  0  0
   -3.9613    1.6960   -0.6125 C   0  0  0  0  0  0
   -3.0000    0.7486    0.1064 C   0  0  0  0  0  0
   -2.4404   -0.3136   -0.8480 C   0  0  0  0  0  0
   -1.5192   -1.3096   -0.1305 C   0  0  0  0  0  0
   -0.0727   -0.7825    0.0464 C   0  0  1  0  0  0
    0.6158   -1.4890    1.2353 C   0  0  0  0  0  0
    0.8352   -2.9863    1.0687 C   0  0  0  0  0  0
    1.5186    0.1812   -1.5829 C   0  0  0  0  0  0
    2.7244    0.4316   -0.6964 C   0  0  0  0  0  0
    3.7559   -0.5127   -0.6140 C   0  0  0  0  0  0
    4.8470   -0.2564    0.2137 C   0  0  0  0  0  0
    4.8812    0.9337    0.9228 C   0  0  0  0  0  0
    5.9181    1.2145    1.7202 F   0  0  0  0  0  0
    3.8303    1.8229    0.7904 C   0  0  0  0  0  0
    2.7554    1.6040   -0.0041 N   0  0  0  0  0  0
   -3.8735    3.2515    0.9018 H   0  0  0  0  0  0
   -5.2743    3.3551   -0.1819 H   0  0  0  0  0  0
   -5.2280    2.1283    1.0957 H   0  0  0  0  0  0
   -4.7433    1.1257   -1.1236 H   0  0  0  0  0  0
   -3.4206    2.2659   -1.3767 H   0  0  0  0  0  0
   -2.1865    1.3251    0.5593 H   0  0  0  0  0  0
   -3.5298    0.2537    0.9308 H   0  0  0  0  0  0
   -3.2814   -0.8648   -1.2820 H   0  0  0  0  0  0
   -1.9208    0.1727   -1.6832 H   0  0  0  0  0  0
   -1.5013   -2.2452   -0.7078 H   0  0  0  0  0  0
   -1.9576   -1.5691    0.8425 H   0  0  0  0  0  0
   -0.1292    0.2821    0.2955 H   0  0  0  0  0  0
    1.5840   -1.0189    1.4397 H   0  0  0  0  0  0
    0.0131   -1.3322    2.1406 H   0  0  0  0  0  0
    1.4175   -3.2182    0.1740 H   0  0  0  0  0  0
   -0.1137   -3.5253    1.0203 H   0  0  0  0  0  0
    1.3850   -3.3767    1.9312 H   0  0  0  0  0  0
    0.9001    1.0863   -1.6496 H   0  0  0  0  0  0
    1.8986    0.0073   -2.5973 H   0  0  0  0  0  0
    3.6963   -1.4428   -1.1735 H   0  0  0  0  0  0
    5.6540   -0.9733    0.3151 H   0  0  0  0  0  0
    3.8324    2.7613    1.3354 H   0  0  0  0  0  0
    0.6849   -1.0026   -1.2245 N   0  3  0  0  0  0
    1.2977   -1.8183   -1.1095 H   0  0  0  0  0  0
    0.0167   -1.1808   -1.9835 H   0  0  0  0  0  0
  1  2  1  0  0  0
  1 17  1  0  0  0
  1 18  1  0  0  0
  1 19  1  0  0  0
  2  3  1  0  0  0
  2 20  1  0  0  0
  2 21  1  0  0  0
  3  4  1  0  0  0
  3 22  1  0  0  0
  3 23  1  0  0  0
  4  5  1  0  0  0
  4 24  1  0  0  0
  4 25  1  0  0  0
  5  6  1  0  0  0
  5 26  1  0  0  0
  5 27  1  0  0  0
  6  7  1  0  0  0
  6 28  1  0  0  0
  6 39  1  0  0  0
  7  8  1  0  0  0
  7 29  1  0  0  0
  7 30  1  0  0  0
  8 31  1  0  0  0
  8 32  1  0  0  0
  8 33  1  0  0  0
  9 10  1  0  0  0
  9 34  1  0  0  0
  9 35  1  0  0  0
  9 39  1  0  0  0
 10 11  2  0  0  0
 10 16  1  0  0  0
 11 12  1  0  0  0
 11 36  1  0  0  0
 12 13  2  0  0  0
 12 37  1  0  0  0
 13 14  1  0  0  0
 13 15  1  0  0  0
 15 16  2  0  0  0
 15 38  1  0  0  0
 39 40  1  0  0  0
 39 41  1  0  0  0
M  CHG  1  39   1
M  END
> <energy>
46.5844

> <chiral flag>
0

> <version>
0

> <i_ionizer_Ion_state_n>
1

> <i_ionizer_Tot_Q>
1

> <s_ionizer_Ion_centers>
39

> <s_ionizer_Ion_types>
N5

> <s_ionizer_Ion_ctrs_in>
9

> <r_ionizer_Ionization_penalty>
0.0075612

> <r_ionizer_Ionization_penalty_charging>
0.000148807

> <r_ionizer_Ionization_penalty_neutral>
0.00741239

$$$$
ZINC001258431914
                    3D
 Structure written by MMmdl.
 41 41  0  0  1  0            999 V2000
   -3.9861    2.1134   -0.2749 C   0  0  0  0  0  0
   -3.7737    0.6176   -0.1031 C   0  0  0  0  0  0
   -2.9121    0.0538   -1.2369 C   0  0  0  0  0  0
   -2.4940   -1.4005   -1.0023 C   0  0  0  0  0  0
   -1.4017   -1.5906    0.0644 C   0  0  0  0  0  0
    0.0397   -1.6663   -0.4941 C   0  0  2  0  0  0
    1.0542   -2.1812    0.5563 C   0  0  0  0  0  0
    0.9614   -1.5888    1.9557 C   0  0  0  0  0  0
    0.6966    0.7588   -0.5071 C   0  0  0  0  0  0
    2.1667    0.9873   -0.1732 C   0  0  0  0  0  0
    2.5219    1.9368    0.7888 C   0  0  0  0  0  0
    3.8726    2.1455    1.0643 C   0  0  0  0  0  0
    4.8230    1.4132    0.3713 C   0  0  0  0  0  0
    6.1261    1.5927    0.6140 F   0  0  0  0  0  0
    4.4005    0.5008   -0.5779 C   0  0  0  0  0  0
    3.0980    0.2758   -0.8722 N   0  0  0  0  0  0
   -4.4278    2.3389   -1.2505 H   0  0  0  0  0  0
   -3.0341    2.6501   -0.1985 H   0  0  0  0  0  0
   -4.6581    2.4942    0.5005 H   0  0  0  0  0  0
   -4.7467    0.1117   -0.0913 H   0  0  0  0  0  0
   -3.3116    0.4369    0.8725 H   0  0  0  0  0  0
   -2.0328    0.6853   -1.3946 H   0  0  0  0  0  0
   -3.4974    0.0983   -2.1645 H   0  0  0  0  0  0
   -2.1676   -1.8418   -1.9524 H   0  0  0  0  0  0
   -3.3810   -1.9681   -0.6922 H   0  0  0  0  0  0
   -1.4812   -0.8253    0.8417 H   0  0  0  0  0  0
   -1.6078   -2.5489    0.5615 H   0  0  0  0  0  0
    0.0134   -2.4615   -1.2538 H   0  0  0  0  0  0
    0.9069   -3.2651    0.6585 H   0  0  0  0  0  0
    2.0763   -2.0687    0.1789 H   0  0  0  0  0  0
    1.0933   -0.5073    1.9666 H   0  0  0  0  0  0
   -0.0008   -1.8181    2.4239 H   0  0  0  0  0  0
    1.7409   -2.0209    2.5921 H   0  0  0  0  0  0
    0.3993    1.5905   -1.1584 H   0  0  0  0  0  0
    0.0749    0.8305    0.3909 H   0  0  0  0  0  0
    1.7623    2.5025    1.3189 H   0  0  0  0  0  0
    4.1867    2.8713    1.8074 H   0  0  0  0  0  0
    5.1195   -0.0851   -1.1394 H   0  0  0  0  0  0
    0.4556   -0.4809   -1.3130 N   0  3  0  0  0  0
    1.3232   -0.7183   -1.8082 H   0  0  0  0  0  0
   -0.2853   -0.2836   -1.9959 H   0  0  0  0  0  0
  1  2  1  0  0  0
  1 17  1  0  0  0
  1 18  1  0  0  0
  1 19  1  0  0  0
  2  3  1  0  0  0
  2 20  1  0  0  0
  2 21  1  0  0  0
  3  4  1  0  0  0
  3 22  1  0  0  0
  3 23  1  0  0  0
  4  5  1  0  0  0
  4 24  1  0  0  0
  4 25  1  0  0  0
  5  6  1  0  0  0
  5 26  1  0  0  0
  5 27  1  0  0  0
  6  7  1  0  0  0
  6 28  1  0  0  0
  6 39  1  0  0  0
  7  8  1  0  0  0
  7 29  1  0  0  0
  7 30  1  0  0  0
  8 31  1  0  0  0
  8 32  1  0  0  0
  8 33  1  0  0  0
  9 10  1  0  0  0
  9 34  1  0  0  0
  9 35  1  0  0  0
  9 39  1  0  0  0
 10 11  2  0  0  0
 10 16  1  0  0  0
 11 12  1  0  0  0
 11 36  1  0  0  0
 12 13  2  0  0  0
 12 37  1  0  0  0
 13 14  1  0  0  0
 13 15  1  0  0  0
 15 16  2  0  0  0
 15 38  1  0  0  0
 39 40  1  0  0  0
 39 41  1  0  0  0
M  CHG  1  39   1
M  END
> <energy>
51.796

> <chiral flag>
0

> <version>
0

> <i_ionizer_Ion_state_n>
1

> <i_ionizer_Tot_Q>
1

> <s_ionizer_Ion_centers>
39

> <s_ionizer_Ion_types>
N5

> <s_ionizer_Ion_ctrs_in>
9

> <r_ionizer_Ionization_penalty>
0.0075612

> <r_ionizer_Ionization_penalty_charging>
0.000148807

> <r_ionizer_Ionization_penalty_neutral>
0.00741239

$$$$
ZINC001258432049
                    3D
 Structure written by MMmdl.
 49 49  0  0  1  0            999 V2000
   -3.7681   -1.3601   -2.2143 C   0  0  0  0  0  0
   -3.9628   -1.7542   -0.7588 C   0  0  0  0  0  0
   -4.1316   -0.5607    0.1851 C   0  0  0  0  0  0
   -2.9836    0.4583    0.1940 C   0  0  0  0  0  0
   -1.6391   -0.1665    0.5816 C   0  0  0  0  0  0
   -0.4511    0.8142    0.7165 C   0  0  2  0  0  0
   -0.6510    1.8868    1.8079 C   0  0  0  0  0  0
   -0.8550    1.3053    3.1998 C   0  0  0  0  0  0
    1.1189    1.2669   -1.1818 C   0  0  1  0  0  0
    2.3068    1.8375   -0.3858 C   0  0  0  0  0  0
    3.0299    0.8569    0.5388 C   0  0  0  0  0  0
    3.1660   -0.5691   -0.0206 C   0  0  2  0  0  0
    4.5210   -0.9888    0.1740 O   0  0  0  0  0  0
    4.6854   -2.4022    0.1503 C   0  0  0  0  0  0
    2.7678   -0.6483   -1.4965 C   0  0  0  0  0  0
    1.3295   -0.1776   -1.6673 C   0  0  0  0  0  0
   -2.8149   -0.8448   -2.3662 H   0  0  0  0  0  0
   -3.7646   -2.2533   -2.8476 H   0  0  0  0  0  0
   -4.5757   -0.7050   -2.5559 H   0  0  0  0  0  0
   -4.8593   -2.3811   -0.6831 H   0  0  0  0  0  0
   -3.1248   -2.3805   -0.4343 H   0  0  0  0  0  0
   -4.2707   -0.9441    1.2043 H   0  0  0  0  0  0
   -5.0591   -0.0341   -0.0719 H   0  0  0  0  0  0
   -3.2477    1.2450    0.9094 H   0  0  0  0  0  0
   -2.9106    0.9403   -0.7869 H   0  0  0  0  0  0
   -1.3724   -0.9214   -0.1667 H   0  0  0  0  0  0
   -1.7576   -0.7177    1.5219 H   0  0  0  0  0  0
    0.4083    0.2033    1.0113 H   0  0  0  0  0  0
    0.2329    2.5358    1.8424 H   0  0  0  0  0  0
   -1.4979    2.5398    1.5663 H   0  0  0  0  0  0
   -0.8769    2.1097    3.9427 H   0  0  0  0  0  0
   -1.8023    0.7634    3.2735 H   0  0  0  0  0  0
   -0.0413    0.6223    3.4642 H   0  0  0  0  0  0
    1.0794    1.8759   -2.0957 H   0  0  0  0  0  0
    2.0120    2.7337    0.1741 H   0  0  0  0  0  0
    3.0465    2.1955   -1.1164 H   0  0  0  0  0  0
    2.5026    0.8078    1.4991 H   0  0  0  0  0  0
    4.0165    1.2733    0.7835 H   0  0  0  0  0  0
    2.5098   -1.2226    0.5702 H   0  0  0  0  0  0
    4.0268   -2.8823    0.8804 H   0  0  0  0  0  0
    4.4942   -2.8019   -0.8483 H   0  0  0  0  0  0
    5.7206   -2.6320    0.4171 H   0  0  0  0  0  0
    3.4534   -0.0527   -2.1124 H   0  0  0  0  0  0
    2.8562   -1.6759   -1.8647 H   0  0  0  0  0  0
    1.0394   -0.2516   -2.7227 H   0  0  0  0  0  0
    0.6818   -0.8816   -1.1346 H   0  0  0  0  0  0
   -0.2426    1.4969   -0.6009 N   0  3  0  0  0  0
   -0.9430    1.1451   -1.2641 H   0  0  0  0  0  0
   -0.3735    2.5067   -0.4684 H   0  0  0  0  0  0
  1  2  1  0  0  0
  1 17  1  0  0  0
  1 18  1  0  0  0
  1 19  1  0  0  0
  2  3  1  0  0  0
  2 20  1  0  0  0
  2 21  1  0  0  0
  3  4  1  0  0  0
  3 22  1  0  0  0
  3 23  1  0  0  0
  4  5  1  0  0  0
  4 24  1  0  0  0
  4 25  1  0  0  0
  5  6  1  0  0  0
  5 26  1  0  0  0
  5 27  1  0  0  0
  6  7  1  0  0  0
  6 28  1  0  0  0
  6 47  1  0  0  0
  7  8  1  0  0  0
  7 29  1  0  0  0
  7 30  1  0  0  0
  8 31  1  0  0  0
  8 32  1  0  0  0
  8 33  1  0  0  0
  9 10  1  0  0  0
  9 16  1  0  0  0
  9 34  1  0  0  0
  9 47  1  0  0  0
 10 11  1  0  0  0
 10 35  1  0  0  0
 10 36  1  0  0  0
 11 12  1  0  0  0
 11 37  1  0  0  0
 11 38  1  0  0  0
 12 13  1  0  0  0
 12 15  1  0  0  0
 12 39  1  0  0  0
 13 14  1  0  0  0
 14 40  1  0  0  0
 14 41  1  0  0  0
 14 42  1  0  0  0
 15 16  1  0  0  0
 15 43  1  0  0  0
 15 44  1  0  0  0
 16 45  1  0  0  0
 16 46  1  0  0  0
 47 48  1  0  0  0
 47 49  1  0  0  0
M  CHG  1  47   1
M  END
> <energy>
23.9253

> <chiral flag>
0

> <version>
0

> <i_ionizer_Ion_state_n>
1

> <i_ionizer_Tot_Q>
1

> <s_ionizer_Ion_centers>
47

> <s_ionizer_Ion_types>
N5

> <s_ionizer_Ion_ctrs_in>
9

> <r_ionizer_Ionization_penalty>
0.000148807

> <r_ionizer_Ionization_penalty_charging>
0.000148807

> <r_ionizer_Ionization_penalty_neutral>
0

$$$$
ZINC001258432050
                    3D
 Structure written by MMmdl.
 49 49  0  0  1  0            999 V2000
   -5.0336   -0.2321   -0.2832 C   0  0  0  0  0  0
   -3.9672    0.8344   -0.0975 C   0  0  0  0  0  0
   -2.7046    0.4756   -0.8817 C   0  0  0  0  0  0
   -1.5947    1.5294   -0.7857 C   0  0  0  0  0  0
   -1.0514    1.7161    0.6395 C   0  0  0  0  0  0
    0.4286    2.1722    0.7266 C   0  0  2  0  0  0
    0.6024    3.6647    0.3299 C   0  0  0  0  0  0
    0.7989    3.9793   -1.1473 C   0  0  0  0  0  0
    1.3849   -0.0889    0.2758 C   0  0  1  0  0  0
    1.6486   -0.8251   -1.0421 C   0  0  0  0  0  0
    1.5944   -2.3458   -0.8655 C   0  0  0  0  0  0
    1.8886   -2.7997    0.5714 C   0  0  1  0  0  0
    2.3725   -4.1475    0.5995 O   0  0  0  0  0  0
    1.3372   -5.1189    0.4492 C   0  0  0  0  0  0
    2.9429   -1.8965    1.2094 C   0  0  0  0  0  0
    2.4618   -0.4435    1.3180 C   0  0  0  0  0  0
   -5.3093   -0.3274   -1.3389 H   0  0  0  0  0  0
   -4.6749   -1.2028    0.0708 H   0  0  0  0  0  0
   -5.9322    0.0249    0.2855 H   0  0  0  0  0  0
   -4.3521    1.7998   -0.4393 H   0  0  0  0  0  0
   -3.7398    0.9291    0.9742 H   0  0  0  0  0  0
   -2.3156   -0.4913   -0.5357 H   0  0  0  0  0  0
   -2.9554    0.3486   -1.9425 H   0  0  0  0  0  0
   -1.9611    2.4906   -1.1633 H   0  0  0  0  0  0
   -0.7961    1.2026   -1.4587 H   0  0  0  0  0  0
   -1.1624    0.7827    1.2080 H   0  0  0  0  0  0
   -1.6801    2.4411    1.1758 H   0  0  0  0  0  0
    0.7134    2.1172    1.7895 H   0  0  0  0  0  0
   -0.2491    4.2477    0.7001 H   0  0  0  0  0  0
    1.4869    4.0512    0.8567 H   0  0  0  0  0  0
    1.7030    3.5060   -1.5458 H   0  0  0  0  0  0
    0.9269    5.0593   -1.2707 H   0  0  0  0  0  0
   -0.0465    3.6819   -1.7698 H   0  0  0  0  0  0
    0.4151   -0.4408    0.6384 H   0  0  0  0  0  0
    2.6351   -0.5405   -1.4334 H   0  0  0  0  0  0
    0.9167   -0.5331   -1.8086 H   0  0  0  0  0  0
    0.6083   -2.7177   -1.1639 H   0  0  0  0  0  0
    2.2988   -2.8065   -1.5675 H   0  0  0  0  0  0
    0.9769   -2.7397    1.1792 H   0  0  0  0  0  0
    0.5450   -4.9586    1.1855 H   0  0  0  0  0  0
    1.7789   -6.1050    0.6134 H   0  0  0  0  0  0
    0.9206   -5.0947   -0.5600 H   0  0  0  0  0  0
    3.8557   -1.9333    0.6013 H   0  0  0  0  0  0
    3.2434   -2.2809    2.1903 H   0  0  0  0  0  0
    2.0502   -0.2767    2.3198 H   0  0  0  0  0  0
    3.3331    0.2145    1.2293 H   0  0  0  0  0  0
    1.3931    1.3611   -0.0742 N   0  3  0  0  0  0
    1.1521    1.4570   -1.0677 H   0  0  0  0  0  0
    2.3383    1.7288    0.0857 H   0  0  0  0  0  0
  1  2  1  0  0  0
  1 17  1  0  0  0
  1 18  1  0  0  0
  1 19  1  0  0  0
  2  3  1  0  0  0
  2 20  1  0  0  0
  2 21  1  0  0  0
  3  4  1  0  0  0
  3 22  1  0  0  0
  3 23  1  0  0  0
  4  5  1  0  0  0
  4 24  1  0  0  0
  4 25  1  0  0  0
  5  6  1  0  0  0
  5 26  1  0  0  0
  5 27  1  0  0  0
  6  7  1  0  0  0
  6 28  1  0  0  0
  6 47  1  0  0  0
  7  8  1  0  0  0
  7 29  1  0  0  0
  7 30  1  0  0  0
  8 31  1  0  0  0
  8 32  1  0  0  0
  8 33  1  0  0  0
  9 10  1  0  0  0
  9 16  1  0  0  0
  9 34  1  0  0  0
  9 47  1  0  0  0
 10 11  1  0  0  0
 10 35  1  0  0  0
 10 36  1  0  0  0
 11 12  1  0  0  0
 11 37  1  0  0  0
 11 38  1  0  0  0
 12 13  1  0  0  0
 12 15  1  0  0  0
 12 39  1  0  0  0
 13 14  1  0  0  0
 14 40  1  0  0  0
 14 41  1  0  0  0
 14 42  1  0  0  0
 15 16  1  0  0  0
 15 43  1  0  0  0
 15 44  1  0  0  0
 16 45  1  0  0  0
 16 46  1  0  0  0
 47 48  1  0  0  0
 47 49  1  0  0  0
M  CHG  1  47   1
M  END
> <energy>
21.6162

> <chiral flag>
0

> <version>
0

> <i_ionizer_Ion_state_n>
1

> <i_ionizer_Tot_Q>
1

> <s_ionizer_Ion_centers>
47

> <s_ionizer_Ion_types>
N5

> <s_ionizer_Ion_ctrs_in>
9

> <r_ionizer_Ionization_penalty>
0.000148807

> <r_ionizer_Ionization_penalty_charging>
0.000148807

> <r_ionizer_Ionization_penalty_neutral>
0

$$$$
ZINC001258432051
                    3D
 Structure written by MMmdl.
 49 49  0  0  1  0            999 V2000
   -4.2479    2.4652   -0.1913 C   0  0  0  0  0  0
   -3.6970    1.4408   -1.1698 C   0  0  0  0  0  0
   -3.0690    0.2585   -0.4335 C   0  0  0  0  0  0
   -2.5444   -0.8008   -1.4056 C   0  0  0  0  0  0
   -1.9679   -2.0276   -0.6798 C   0  0  0  0  0  0
   -0.6761   -1.7731    0.1344 C   0  0  1  0  0  0
   -0.2446   -3.0418    0.9080 C   0  0  0  0  0  0
   -1.2386   -3.4972    1.9714 C   0  0  0  0  0  0
    1.3300   -0.3857   -0.2438 C   0  0  1  0  0  0
    2.7779   -0.6801   -0.6588 C   0  0  0  0  0  0
    3.7390    0.3146    0.0002 C   0  0  0  0  0  0
    3.2290    1.7643   -0.0027 C   0  0  2  0  0  0
    2.7726    2.1265    1.3058 O   0  0  0  0  0  0
    3.8151    2.6406    2.1270 C   0  0  0  0  0  0
    2.0678    1.9719   -0.9740 C   0  0  0  0  0  0
    0.9011    0.9997   -0.7612 C   0  0  0  0  0  0
   -3.4628    2.8530    0.4682 H   0  0  0  0  0  0
   -4.6856    3.3102   -0.7316 H   0  0  0  0  0  0
   -5.0297    2.0239    0.4355 H   0  0  0  0  0  0
   -2.9509    1.9192   -1.8115 H   0  0  0  0  0  0
   -4.5107    1.0935   -1.8183 H   0  0  0  0  0  0
   -2.2553    0.6270    0.2023 H   0  0  0  0  0  0
   -3.8133   -0.1944    0.2329 H   0  0  0  0  0  0
   -3.3753   -1.1406   -2.0419 H   0  0  0  0  0  0
   -1.7993   -0.3664   -2.0786 H   0  0  0  0  0  0
   -1.7835   -2.8164   -1.4226 H   0  0  0  0  0  0
   -2.7518   -2.4130   -0.0175 H   0  0  0  0  0  0
   -0.8664   -0.9710    0.8564 H   0  0  0  0  0  0
    0.7158   -2.8547    1.4060 H   0  0  0  0  0  0
   -0.0823   -3.8735    0.2086 H   0  0  0  0  0  0
   -1.5004   -2.6817    2.6522 H   0  0  0  0  0  0
   -0.8020   -4.3091    2.5636 H   0  0  0  0  0  0
   -2.1579   -3.8890    1.5278 H   0  0  0  0  0  0
    1.2993   -0.3902    0.8536 H   0  0  0  0  0  0
    2.8870   -0.6197   -1.7514 H   0  0  0  0  0  0
    3.0676   -1.6979   -0.3679 H   0  0  0  0  0  0
    3.9312   -0.0134    1.0302 H   0  0  0  0  0  0
    4.6966    0.2611   -0.5269 H   0  0  0  0  0  0
    4.0409    2.4422   -0.2951 H   0  0  0  0  0  0
    4.6157    1.9060    2.2459 H   0  0  0  0  0  0
    3.4014    2.8772    3.1116 H   0  0  0  0  0  0
    4.2166    3.5637    1.6953 H   0  0  0  0  0  0
    1.6872    2.9978   -0.8986 H   0  0  0  0  0  0
    2.4415    1.8559   -1.9994 H   0  0  0  0  0  0
    0.1784    1.4381   -0.0615 H   0  0  0  0  0  0
    0.3734    0.9118   -1.7230 H   0  0  0  0  0  0
    0.4121   -1.4067   -0.8196 N   0  3  0  0  0  0
    0.9528   -2.2494   -1.0470 H   0  0  0  0  0  0
   -0.0097   -1.0292   -1.6762 H   0  0  0  0  0  0
  1  2  1  0  0  0
  1 17  1  0  0  0
  1 18  1  0  0  0
  1 19  1  0  0  0
  2  3  1  0  0  0
  2 20  1  0  0  0
  2 21  1  0  0  0
  3  4  1  0  0  0
  3 22  1  0  0  0
  3 23  1  0  0  0
  4  5  1  0  0  0
  4 24  1  0  0  0
  4 25  1  0  0  0
  5  6  1  0  0  0
  5 26  1  0  0  0
  5 27  1  0  0  0
  6  7  1  0  0  0
  6 28  1  0  0  0
  6 47  1  0  0  0
  7  8  1  0  0  0
  7 29  1  0  0  0
  7 30  1  0  0  0
  8 31  1  0  0  0
  8 32  1  0  0  0
  8 33  1  0  0  0
  9 10  1  0  0  0
  9 16  1  0  0  0
  9 34  1  0  0  0
  9 47  1  0  0  0
 10 11  1  0  0  0
 10 35  1  0  0  0
 10 36  1  0  0  0
 11 12  1  0  0  0
 11 37  1  0  0  0
 11 38  1  0  0  0
 12 13  1  0  0  0
 12 15  1  0  0  0
 12 39  1  0  0  0
 13 14  1  0  0  0
 14 40  1  0  0  0
 14 41  1  0  0  0
 14 42  1  0  0  0
 15 16  1  0  0  0
 15 43  1  0  0  0
 15 44  1  0  0  0
 16 45  1  0  0  0
 16 46  1  0  0  0
 47 48  1  0  0  0
 47 49  1  0  0  0
M  CHG  1  47   1
M  END
> <energy>
17.7686

> <chiral flag>
0

> <version>
0

> <i_ionizer_Ion_state_n>
1

> <i_ionizer_Tot_Q>
1

> <s_ionizer_Ion_centers>
47

> <s_ionizer_Ion_types>
N5

> <s_ionizer_Ion_ctrs_in>
9

> <r_ionizer_Ionization_penalty>
0.000148807

> <r_ionizer_Ionization_penalty_charging>
0.000148807

> <r_ionizer_Ionization_penalty_neutral>
0

$$$$
ZINC001258432052
                    3D
 Structure written by MMmdl.
 49 49  0  0  1  0            999 V2000
   -4.3524   -1.3448    1.3716 C   0  0  0  0  0  0
   -4.1433   -2.2284    0.1508 C   0  0  0  0  0  0
   -2.9766   -3.2076    0.3053 C   0  0  0  0  0  0
   -1.5972   -2.5819    0.5498 C   0  0  0  0  0  0
   -1.1002   -1.7526   -0.6363 C   0  0  0  0  0  0
    0.2986   -1.1141   -0.4325 C   0  0  1  0  0  0
    1.4247   -2.1346   -0.1440 C   0  0  0  0  0  0
    1.6511   -3.1766   -1.2309 C   0  0  0  0  0  0
    1.0466    1.0449   -1.4663 C   0  0  1  0  0  0
   -0.0360    1.9535   -0.8459 C   0  0  0  0  0  0
    0.3917    2.5434    0.4903 C   0  0  0  0  0  0
    1.7261    3.2976    0.4147 C   0  0  1  0  0  0
    2.2896    3.2693    1.7327 O   0  0  0  0  0  0
    2.6776    4.5533    2.2019 C   0  0  0  0  0  0
    2.7298    2.6710   -0.5636 C   0  0  0  0  0  0
    2.4268    1.1927   -0.8088 C   0  0  0  0  0  0
   -5.2862   -0.7798    1.2762 H   0  0  0  0  0  0
   -3.5356   -0.6247    1.4847 H   0  0  0  0  0  0
   -4.4148   -1.9457    2.2863 H   0  0  0  0  0  0
   -4.0121   -1.6039   -0.7400 H   0  0  0  0  0  0
   -5.0587   -2.8108   -0.0159 H   0  0  0  0  0  0
   -2.9306   -3.8348   -0.5927 H   0  0  0  0  0  0
   -3.2004   -3.8834    1.1411 H   0  0  0  0  0  0
   -1.6084   -1.9732    1.4602 H   0  0  0  0  0  0
   -0.8993   -3.4058    0.7320 H   0  0  0  0  0  0
   -1.1114   -2.3745   -1.5405 H   0  0  0  0  0  0
   -1.8179   -0.9416   -0.8109 H   0  0  0  0  0  0
    0.2252   -0.4499    0.4368 H   0  0  0  0  0  0
    2.3706   -1.6019    0.0099 H   0  0  0  0  0  0
    1.2261   -2.6499    0.8043 H   0  0  0  0  0  0
    1.9038   -2.7119   -2.1899 H   0  0  0  0  0  0
    0.7698   -3.8057   -1.3753 H   0  0  0  0  0  0
    2.4840   -3.8314   -0.9490 H   0  0  0  0  0  0
    1.1775    1.4107   -2.4944 H   0  0  0  0  0  0
   -0.2543    2.7711   -1.5450 H   0  0  0  0  0  0
   -0.9857    1.4204   -0.7192 H   0  0  0  0  0  0
   -0.3808    3.2275    0.8631 H   0  0  0  0  0  0
    0.4552    1.7433    1.2396 H   0  0  0  0  0  0
    1.5348    4.3322    0.1045 H   0  0  0  0  0  0
    1.7917    5.1806    2.3417 H   0  0  0  0  0  0
    3.1720    4.4286    3.1694 H   0  0  0  0  0  0
    3.3781    5.0253    1.5068 H   0  0  0  0  0  0
    2.6736    3.1996   -1.5247 H   0  0  0  0  0  0
    3.7587    2.7821   -0.1993 H   0  0  0  0  0  0
    2.4831    0.6587    0.1457 H   0  0  0  0  0  0
    3.1953    0.7623   -1.4622 H   0  0  0  0  0  0
    0.6186   -0.3688   -1.7003 N   0  3  0  0  0  0
    1.3771   -0.8623   -2.1855 H   0  0  0  0  0  0
   -0.2192   -0.3611   -2.2938 H   0  0  0  0  0  0
  1  2  1  0  0  0
  1 17  1  0  0  0
  1 18  1  0  0  0
  1 19  1  0  0  0
  2  3  1  0  0  0
  2 20  1  0  0  0
  2 21  1  0  0  0
  3  4  1  0  0  0
  3 22  1  0  0  0
  3 23  1  0  0  0
  4  5  1  0  0  0
  4 24  1  0  0  0
  4 25  1  0  0  0
  5  6  1  0  0  0
  5 26  1  0  0  0
  5 27  1  0  0  0
  6  7  1  0  0  0
  6 28  1  0  0  0
  6 47  1  0  0  0
  7  8  1  0  0  0
  7 29  1  0  0  0
  7 30  1  0  0  0
  8 31  1  0  0  0
  8 32  1  0  0  0
  8 33  1  0  0  0
  9 10  1  0  0  0
  9 16  1  0  0  0
  9 34  1  0  0  0
  9 47  1  0  0  0
 10 11  1  0  0  0
 10 35  1  0  0  0
 10 36  1  0  0  0
 11 12  1  0  0  0
 11 37  1  0  0  0
 11 38  1  0  0  0
 12 13  1  0  0  0
 12 15  1  0  0  0
 12 39  1  0  0  0
 13 14  1  0  0  0
 14 40  1  0  0  0
 14 41  1  0  0  0
 14 42  1  0  0  0
 15 16  1  0  0  0
 15 43  1  0  0  0
 15 44  1  0  0  0
 16 45  1  0  0  0
 16 46  1  0  0  0
 47 48  1  0  0  0
 47 49  1  0  0  0
M  CHG  1  47   1
M  END
> <energy>
23.4791

> <chiral flag>
0

> <version>
0

> <i_ionizer_Ion_state_n>
1

> <i_ionizer_Tot_Q>
1

> <s_ionizer_Ion_centers>
47

> <s_ionizer_Ion_types>
N5

> <s_ionizer_Ion_ctrs_in>
9

> <r_ionizer_Ionization_penalty>
0.000148807

> <r_ionizer_Ionization_penalty_charging>
0.000148807

> <r_ionizer_Ionization_penalty_neutral>
0

$$$$
ZINC001258432166
                    3D
 Structure written by MMmdl.
 42 42  0  0  1  0            999 V2000
   -2.4915    2.1995    0.3769 C   0  0  0  0  0  0
   -3.3841    1.3379   -0.5059 C   0  0  0  0  0  0
   -2.6079    0.2401   -1.2379 C   0  0  0  0  0  0
   -2.3144   -0.9779   -0.3536 C   0  0  0  0  0  0
   -1.3848   -1.9956   -1.0407 C   0  0  0  0  0  0
    0.1160   -1.9366   -0.6495 C   0  0  2  0  0  0
    0.4300   -2.7692    0.6155 C   0  0  0  0  0  0
   -0.1698   -2.2704    1.9200 C   0  0  0  0  0  0
    2.0003   -0.3643   -0.4165 C   0  0  0  0  0  0
    2.3500    1.1153   -0.6202 C   0  0  1  0  0  0
    1.7754    2.1317    0.4031 C   0  0  0  0  0  0
    3.0953    2.0063    1.1934 C   0  0  2  0  0  0
    3.5808    3.1478    1.7270 F   0  0  0  0  0  0
    3.7537    1.5442   -0.1282 C   0  0  0  0  0  0
   -1.6578    2.6157   -0.1979 H   0  0  0  0  0  0
   -3.0635    3.0381    0.7880 H   0  0  0  0  0  0
   -2.0803    1.6272    1.2134 H   0  0  0  0  0  0
   -4.1939    0.9047    0.0931 H   0  0  0  0  0  0
   -3.8545    1.9882   -1.2524 H   0  0  0  0  0  0
   -1.6878    0.6640   -1.6515 H   0  0  0  0  0  0
   -3.2046   -0.0931   -2.0949 H   0  0  0  0  0  0
   -1.9156   -0.6611    0.6115 H   0  0  0  0  0  0
   -3.2706   -1.4725   -0.1451 H   0  0  0  0  0  0
   -1.4677   -1.8762   -2.1294 H   0  0  0  0  0  0
   -1.7591   -3.0055   -0.8288 H   0  0  0  0  0  0
    0.6518   -2.4323   -1.4720 H   0  0  0  0  0  0
    0.0889   -3.8015    0.4528 H   0  0  0  0  0  0
    1.5178   -2.8432    0.7388 H   0  0  0  0  0  0
   -1.2573   -2.3844    1.9240 H   0  0  0  0  0  0
    0.0776   -1.2226    2.1119 H   0  0  0  0  0  0
    0.2183   -2.8620    2.7558 H   0  0  0  0  0  0
    2.2853   -0.6820    0.5915 H   0  0  0  0  0  0
    2.5656   -0.9656   -1.1386 H   0  0  0  0  0  0
    2.1612    1.4103   -1.6610 H   0  0  0  0  0  0
    1.6126    3.1319   -0.0174 H   0  0  0  0  0  0
    0.8730    1.8361    0.9438 H   0  0  0  0  0  0
    3.0556    1.2028    1.9415 H   0  0  0  0  0  0
    4.4998    0.7511   -0.0362 H   0  0  0  0  0  0
    4.1863    2.3686   -0.7078 H   0  0  0  0  0  0
    0.5418   -0.5113   -0.6198 N   0  3  0  0  0  0
    0.2871   -0.0720   -1.5122 H   0  0  0  0  0  0
    0.0521   -0.0363    0.1475 H   0  0  0  0  0  0
  1  2  1  0  0  0
  1 15  1  0  0  0
  1 16  1  0  0  0
  1 17  1  0  0  0
  2  3  1  0  0  0
  2 18  1  0  0  0
  2 19  1  0  0  0
  3  4  1  0  0  0
  3 20  1  0  0  0
  3 21  1  0  0  0
  4  5  1  0  0  0
  4 22  1  0  0  0
  4 23  1  0  0  0
  5  6  1  0  0  0
  5 24  1  0  0  0
  5 25  1  0  0  0
  6  7  1  0  0  0
  6 26  1  0  0  0
  6 40  1  0  0  0
  7  8  1  0  0  0
  7 27  1  0  0  0
  7 28  1  0  0  0
  8 29  1  0  0  0
  8 30  1  0  0  0
  8 31  1  0  0  0
  9 10  1  0  0  0
  9 32  1  0  0  0
  9 33  1  0  0  0
  9 40  1  0  0  0
 10 11  1  0  0  0
 10 14  1  0  0  0
 10 34  1  0  0  0
 11 12  1  0  0  0
 11 35  1  0  0  0
 11 36  1  0  0  0
 12 13  1  0  0  0
 12 14  1  0  0  0
 12 37  1  0  0  0
 14 38  1  0  0  0
 14 39  1  0  0  0
 40 41  1  0  0  0
 40 42  1  0  0  0
M  CHG  1  40   1
M  END
> <energy>
16.7642

> <chiral flag>
0

> <version>
0

> <i_ionizer_Ion_state_n>
1

> <i_ionizer_Tot_Q>
1

> <s_ionizer_Ion_centers>
40

> <s_ionizer_Ion_types>
N5

> <s_ionizer_Ion_ctrs_in>
9

> <r_ionizer_Ionization_penalty>
0.000148807

> <r_ionizer_Ionization_penalty_charging>
0.000148807

> <r_ionizer_Ionization_penalty_neutral>
0

$$$$
ZINC001258432167
                    3D
 Structure written by MMmdl.
 42 42  0  0  1  0            999 V2000
   -3.9798    2.8948    0.3037 C   0  0  0  0  0  0
   -3.3219    1.6548   -0.2802 C   0  0  0  0  0  0
   -2.5294    0.8836    0.7764 C   0  0  0  0  0  0
   -1.7958   -0.3078    0.1527 C   0  0  0  0  0  0
   -1.0116   -1.0944    1.2055 C   0  0  0  0  0  0
    0.0629   -2.0897    0.6990 C   0  0  1  0  0  0
   -0.4139   -3.0928   -0.3764 C   0  0  0  0  0  0
   -0.3486   -2.6543   -1.8321 C   0  0  0  0  0  0
    1.4890   -0.2445   -0.2081 C   0  0  0  0  0  0
    2.9527    0.1155   -0.4943 C   0  0  1  0  0  0
    3.1736    1.5469   -1.0462 C   0  0  0  0  0  0
    3.4756    2.0067    0.3987 C   0  0  2  0  0  0
    4.4779    2.9028    0.5411 F   0  0  0  0  0  0
    3.8367    0.5359    0.7091 C   0  0  0  0  0  0
   -4.5435    3.4244   -0.4707 H   0  0  0  0  0  0
   -4.6718    2.6312    1.1091 H   0  0  0  0  0  0
   -3.2295    3.5832    0.7057 H   0  0  0  0  0  0
   -2.6591    1.9568   -1.1008 H   0  0  0  0  0  0
   -4.0928    1.0044   -0.7099 H   0  0  0  0  0  0
   -3.2055    0.5357    1.5659 H   0  0  0  0  0  0
   -1.8008    1.5558    1.2466 H   0  0  0  0  0  0
   -1.1388    0.0708   -0.6329 H   0  0  0  0  0  0
   -2.5256   -0.9724   -0.3251 H   0  0  0  0  0  0
   -0.5385   -0.4042    1.9156 H   0  0  0  0  0  0
   -1.7383   -1.6620    1.8041 H   0  0  0  0  0  0
    0.2235   -2.7358    1.5761 H   0  0  0  0  0  0
   -1.4402   -3.4044   -0.1461 H   0  0  0  0  0  0
    0.1989   -4.0012   -0.2866 H   0  0  0  0  0  0
   -0.6934   -3.4716   -2.4762 H   0  0  0  0  0  0
   -0.9860   -1.7906   -2.0339 H   0  0  0  0  0  0
    0.6755   -2.4154   -2.1349 H   0  0  0  0  0  0
    1.0351    0.5242    0.4251 H   0  0  0  0  0  0
    0.9589   -0.2609   -1.1641 H   0  0  0  0  0  0
    3.4208   -0.6475   -1.1311 H   0  0  0  0  0  0
    2.3146    2.0286   -1.5199 H   0  0  0  0  0  0
    4.0373    1.6325   -1.7168 H   0  0  0  0  0  0
    2.5734    2.3359    0.9326 H   0  0  0  0  0  0
    3.5323    0.1731    1.6937 H   0  0  0  0  0  0
    4.9005    0.3110    0.5679 H   0  0  0  0  0  0
    1.4560   -1.5799    0.4471 N   0  3  0  0  0  0
    1.9455   -1.5124    1.3472 H   0  0  0  0  0  0
    1.9436   -2.2509   -0.1581 H   0  0  0  0  0  0
  1  2  1  0  0  0
  1 15  1  0  0  0
  1 16  1  0  0  0
  1 17  1  0  0  0
  2  3  1  0  0  0
  2 18  1  0  0  0
  2 19  1  0  0  0
  3  4  1  0  0  0
  3 20  1  0  0  0
  3 21  1  0  0  0
  4  5  1  0  0  0
  4 22  1  0  0  0
  4 23  1  0  0  0
  5  6  1  0  0  0
  5 24  1  0  0  0
  5 25  1  0  0  0
  6  7  1  0  0  0
  6 26  1  0  0  0
  6 40  1  0  0  0
  7  8  1  0  0  0
  7 27  1  0  0  0
  7 28  1  0  0  0
  8 29  1  0  0  0
  8 30  1  0  0  0
  8 31  1  0  0  0
  9 10  1  0  0  0
  9 32  1  0  0  0
  9 33  1  0  0  0
  9 40  1  0  0  0
 10 11  1  0  0  0
 10 14  1  0  0  0
 10 34  1  0  0  0
 11 12  1  0  0  0
 11 35  1  0  0  0
 11 36  1  0  0  0
 12 13  1  0  0  0
 12 14  1  0  0  0
 12 37  1  0  0  0
 14 38  1  0  0  0
 14 39  1  0  0  0
 40 41  1  0  0  0
 40 42  1  0  0  0
M  CHG  1  40   1
M  END
> <energy>
20.1377

> <chiral flag>
0

> <version>
0

> <i_ionizer_Ion_state_n>
1

> <i_ionizer_Tot_Q>
1

> <s_ionizer_Ion_centers>
40

> <s_ionizer_Ion_types>
N5

> <s_ionizer_Ion_ctrs_in>
9

> <r_ionizer_Ionization_penalty>
0.000148807

> <r_ionizer_Ionization_penalty_charging>
0.000148807

> <r_ionizer_Ionization_penalty_neutral>
0

$$$$
ZINC001258432168
                    3D
 Structure written by MMmdl.
 47 47  0  0  1  0            999 V2000
   -1.8002    3.3914    2.0850 C   0  0  0  0  0  0
   -1.6953    2.8357    0.6750 C   0  0  0  0  0  0
   -2.2899    1.4286    0.5727 C   0  0  0  0  0  0
   -2.0965    0.8759   -0.8396 C   0  0  0  0  0  0
   -2.6309   -0.5424   -1.0815 C   0  0  0  0  0  0
   -2.0032   -1.7559   -0.3364 C   0  0  2  0  0  0
   -3.0677   -2.5103    0.4981 C   0  0  0  0  0  0
   -3.6427   -1.7361    1.6777 C   0  0  0  0  0  0
    0.4086   -1.2854   -0.2307 C   0  0  0  0  0  0
    1.4455   -0.6573    0.7072 C   0  0  0  0  0  0
    2.6053   -0.0643   -0.0487 C   0  0  0  0  0  0
    3.6049   -0.8661   -0.5963 C   0  0  0  0  0  0
    4.6511   -0.2617   -1.3007 C   0  0  0  0  0  0
    5.7334   -1.0769   -1.9420 C   0  0  0  0  0  0
    4.6506    1.1285   -1.4321 C   0  0  0  0  0  0
    3.6165    1.8492   -0.8610 C   0  0  0  0  0  0
    2.6003    1.2848   -0.1801 N   0  0  0  0  0  0
   -2.8449    3.4497    2.4083 H   0  0  0  0  0  0
   -1.3737    4.3997    2.1219 H   0  0  0  0  0  0
   -1.2541    2.7617    2.7952 H   0  0  0  0  0  0
   -0.6389    2.8175    0.3797 H   0  0  0  0  0  0
   -2.2136    3.5060   -0.0197 H   0  0  0  0  0  0
   -3.3592    1.4606    0.8120 H   0  0  0  0  0  0
   -1.8130    0.7843    1.3162 H   0  0  0  0  0  0
   -2.6174    1.5440   -1.5366 H   0  0  0  0  0  0
   -1.0426    0.9470   -1.1233 H   0  0  0  0  0  0
   -3.7179   -0.5237   -0.9323 H   0  0  0  0  0  0
   -2.5002   -0.7311   -2.1558 H   0  0  0  0  0  0
   -1.6942   -2.4772   -1.1078 H   0  0  0  0  0  0
   -3.8902   -2.8233   -0.1574 H   0  0  0  0  0  0
   -2.6268   -3.4398    0.8797 H   0  0  0  0  0  0
   -4.2789   -2.3932    2.2802 H   0  0  0  0  0  0
   -4.2547   -0.8937    1.3427 H   0  0  0  0  0  0
   -2.8523   -1.3540    2.3307 H   0  0  0  0  0  0
    0.7750   -2.2519   -0.6023 H   0  0  0  0  0  0
    0.2651   -0.6500   -1.1091 H   0  0  0  0  0  0
    1.8062   -1.3947    1.4347 H   0  0  0  0  0  0
    0.9784    0.1472    1.2928 H   0  0  0  0  0  0
    3.5658   -1.9451   -0.4774 H   0  0  0  0  0  0
    6.7191   -0.6915   -1.6632 H   0  0  0  0  0  0
    5.6863   -2.1250   -1.6293 H   0  0  0  0  0  0
    5.6336   -1.0401   -3.0315 H   0  0  0  0  0  0
    5.4352    1.6453   -1.9725 H   0  0  0  0  0  0
    3.5712    2.9316   -0.9448 H   0  0  0  0  0  0
   -0.8432   -1.4750    0.5429 N   0  3  0  0  0  0
   -1.0336   -0.6207    1.0797 H   0  0  0  0  0  0
   -0.7178   -2.2638    1.1881 H   0  0  0  0  0  0
  1  2  1  0  0  0
  1 18  1  0  0  0
  1 19  1  0  0  0
  1 20  1  0  0  0
  2  3  1  0  0  0
  2 21  1  0  0  0
  2 22  1  0  0  0
  3  4  1  0  0  0
  3 23  1  0  0  0
  3 24  1  0  0  0
  4  5  1  0  0  0
  4 25  1  0  0  0
  4 26  1  0  0  0
  5  6  1  0  0  0
  5 27  1  0  0  0
  5 28  1  0  0  0
  6  7  1  0  0  0
  6 29  1  0  0  0
  6 45  1  0  0  0
  7  8  1  0  0  0
  7 30  1  0  0  0
  7 31  1  0  0  0
  8 32  1  0  0  0
  8 33  1  0  0  0
  8 34  1  0  0  0
  9 10  1  0  0  0
  9 35  1  0  0  0
  9 36  1  0  0  0
  9 45  1  0  0  0
 10 11  1  0  0  0
 10 37  1  0  0  0
 10 38  1  0  0  0
 11 12  2  0  0  0
 11 17  1  0  0  0
 12 13  1  0  0  0
 12 39  1  0  0  0
 13 14  1  0  0  0
 13 15  2  0  0  0
 14 40  1  0  0  0
 14 41  1  0  0  0
 14 42  1  0  0  0
 15 16  1  0  0  0
 15 43  1  0  0  0
 16 17  2  0  0  0
 16 44  1  0  0  0
 45 46  1  0  0  0
 45 47  1  0  0  0
M  CHG  1  45   1
M  END
> <energy>
37.017

> <chiral flag>
0

> <version>
0

> <i_ionizer_Ion_state_n>
1

> <i_ionizer_Tot_Q>
1

> <s_ionizer_Ion_centers>
45

> <s_ionizer_Ion_types>
N5

> <s_ionizer_Ion_ctrs_in>
9

> <r_ionizer_Ionization_penalty>
0.0075612

> <r_ionizer_Ionization_penalty_charging>
0.000148807

> <r_ionizer_Ionization_penalty_neutral>
0.00741239

$$$$
ZINC001258432169
                    3D
 Structure written by MMmdl.
 47 47  0  0  1  0            999 V2000
    2.4486   -2.4053   -1.3506 C   0  0  0  0  0  0
    2.0229   -3.2957   -0.1934 C   0  0  0  0  0  0
    0.5565   -3.0981    0.1914 C   0  0  0  0  0  0
    0.3351   -1.8581    1.0651 C   0  0  0  0  0  0
   -1.1375   -1.6902    1.4630 C   0  0  0  0  0  0
   -2.0273   -1.0890    0.3506 C   0  0  1  0  0  0
   -3.5112   -1.2206    0.7516 C   0  0  0  0  0  0
   -4.4641   -0.8203   -0.3707 C   0  0  0  0  0  0
   -1.1999    0.6310   -1.1867 C   0  0  0  0  0  0
   -0.9601    2.1360   -1.4013 C   0  0  0  0  0  0
    0.1400    2.7957   -0.6012 C   0  0  0  0  0  0
    1.3619    2.1712   -0.3510 C   0  0  0  0  0  0
    2.3649    2.8649    0.3387 C   0  0  0  0  0  0
    3.6712    2.1981    0.6537 C   0  0  0  0  0  0
    2.1108    4.1716    0.7507 C   0  0  0  0  0  0
    0.8807    4.7258    0.4547 C   0  0  0  0  0  0
   -0.0978    4.0728   -0.2083 N   0  0  0  0  0  0
    2.3986   -1.3456   -1.0834 H   0  0  0  0  0  0
    3.4788   -2.6348   -1.6399 H   0  0  0  0  0  0
    1.8091   -2.5705   -2.2241 H   0  0  0  0  0  0
    2.6715   -3.1189    0.6728 H   0  0  0  0  0  0
    2.1716   -4.3407   -0.4888 H   0  0  0  0  0  0
   -0.0638   -3.0559   -0.7111 H   0  0  0  0  0  0
    0.2275   -3.9801    0.7555 H   0  0  0  0  0  0
    0.9286   -1.9681    1.9800 H   0  0  0  0  0  0
    0.7056   -0.9597    0.5657 H   0  0  0  0  0  0
   -1.5331   -2.6680    1.7659 H   0  0  0  0  0  0
   -1.1934   -1.0586    2.3593 H   0  0  0  0  0  0
   -1.8766   -1.6671   -0.5703 H   0  0  0  0  0  0
   -3.7245   -0.6170    1.6423 H   0  0  0  0  0  0
   -3.7233   -2.2646    1.0172 H   0  0  0  0  0  0
   -4.3609    0.2368   -0.6323 H   0  0  0  0  0  0
   -5.4993   -0.9873   -0.0594 H   0  0  0  0  0  0
   -4.2812   -1.4178   -1.2692 H   0  0  0  0  0  0
   -0.2829    0.0640   -1.3713 H   0  0  0  0  0  0
   -1.9311    0.3062   -1.9374 H   0  0  0  0  0  0
   -1.9012    2.6726   -1.2160 H   0  0  0  0  0  0
   -0.7274    2.2990   -2.4614 H   0  0  0  0  0  0
    1.5511    1.1605   -0.6912 H   0  0  0  0  0  0
    4.4344    2.9313    0.9387 H   0  0  0  0  0  0
    3.5429    1.4929    1.4817 H   0  0  0  0  0  0
    4.0457    1.6599   -0.2231 H   0  0  0  0  0  0
    2.8538    4.7540    1.2856 H   0  0  0  0  0  0
    0.6396    5.7447    0.7479 H   0  0  0  0  0  0
   -1.7376    0.3558    0.1613 N   0  3  0  0  0  0
   -2.6056    0.8892    0.2890 H   0  0  0  0  0  0
   -1.0478    0.6518    0.8619 H   0  0  0  0  0  0
  1  2  1  0  0  0
  1 18  1  0  0  0
  1 19  1  0  0  0
  1 20  1  0  0  0
  2  3  1  0  0  0
  2 21  1  0  0  0
  2 22  1  0  0  0
  3  4  1  0  0  0
  3 23  1  0  0  0
  3 24  1  0  0  0
  4  5  1  0  0  0
  4 25  1  0  0  0
  4 26  1  0  0  0
  5  6  1  0  0  0
  5 27  1  0  0  0
  5 28  1  0  0  0
  6  7  1  0  0  0
  6 29  1  0  0  0
  6 45  1  0  0  0
  7  8  1  0  0  0
  7 30  1  0  0  0
  7 31  1  0  0  0
  8 32  1  0  0  0
  8 33  1  0  0  0
  8 34  1  0  0  0
  9 10  1  0  0  0
  9 35  1  0  0  0
  9 36  1  0  0  0
  9 45  1  0  0  0
 10 11  1  0  0  0
 10 37  1  0  0  0
 10 38  1  0  0  0
 11 12  2  0  0  0
 11 17  1  0  0  0
 12 13  1  0  0  0
 12 39  1  0  0  0
 13 14  1  0  0  0
 13 15  2  0  0  0
 14 40  1  0  0  0
 14 41  1  0  0  0
 14 42  1  0  0  0
 15 16  1  0  0  0
 15 43  1  0  0  0
 16 17  2  0  0  0
 16 44  1  0  0  0
 45 46  1  0  0  0
 45 47  1  0  0  0
M  CHG  1  45   1
M  END
> <energy>
33.6445

> <chiral flag>
0

> <version>
0

> <i_ionizer_Ion_state_n>
1

> <i_ionizer_Tot_Q>
1

> <s_ionizer_Ion_centers>
45

> <s_ionizer_Ion_types>
N5

> <s_ionizer_Ion_ctrs_in>
9

> <r_ionizer_Ionization_penalty>
0.0075612

> <r_ionizer_Ionization_penalty_charging>
0.000148807

> <r_ionizer_Ionization_penalty_neutral>
0.00741239

$$$$
ZINC001258432192
                    3D
 Structure written by MMmdl.
 48 47  0  0  1  0            999 V2000
   -2.9578    3.1108    0.6093 C   0  0  0  0  0  0
   -3.0113    2.0673   -0.4938 C   0  0  0  0  0  0
   -2.5054    0.7072   -0.0078 C   0  0  0  0  0  0
   -2.3876   -0.2720   -1.1718 C   0  0  0  0  0  0
   -1.9534   -1.6967   -0.8013 C   0  0  0  0  0  0
   -0.5230   -1.8372   -0.2044 C   0  0  2  0  0  0
    0.1518   -3.1390   -0.6958 C   0  0  0  0  0  0
    0.5111   -3.0969   -2.1755 C   0  0  0  0  0  0
    0.6035   -1.9339    2.0296 C   0  0  0  0  0  0
    1.7366   -0.9623    1.6890 C   0  0  0  0  0  0
    1.3664    0.5100    1.8671 C   0  0  0  0  0  0
    1.3320    1.1668    0.5956 O   0  0  0  0  0  0
    2.6276    1.5253    0.1019 C   0  0  0  0  0  0
    2.6752    1.1840   -1.3803 C   0  0  0  0  0  0
    2.8251    3.0149    0.3361 C   0  0  0  0  0  0
   -3.5966    2.8323    1.4522 H   0  0  0  0  0  0
   -3.2956    4.0813    0.2318 H   0  0  0  0  0  0
   -1.9361    3.2360    0.9834 H   0  0  0  0  0  0
   -2.3998    2.4121   -1.3343 H   0  0  0  0  0  0
   -4.0404    1.9755   -0.8605 H   0  0  0  0  0  0
   -3.1842    0.3064    0.7569 H   0  0  0  0  0  0
   -1.5243    0.8473    0.4582 H   0  0  0  0  0  0
   -3.3600   -0.3384   -1.6775 H   0  0  0  0  0  0
   -1.6862    0.1364   -1.9111 H   0  0  0  0  0  0
   -2.6983   -2.1375   -0.1217 H   0  0  0  0  0  0
   -2.0396   -2.2877   -1.7198 H   0  0  0  0  0  0
    0.0811   -0.9834   -0.5366 H   0  0  0  0  0  0
    1.0899   -3.3199   -0.1610 H   0  0  0  0  0  0
   -0.4895   -4.0051   -0.4909 H   0  0  0  0  0  0
    1.1731   -2.2474   -2.3821 H   0  0  0  0  0  0
    1.0338   -4.0140   -2.4633 H   0  0  0  0  0  0
   -0.3679   -3.0071   -2.8163 H   0  0  0  0  0  0
    0.9818   -2.9568    1.9495 H   0  0  0  0  0  0
    0.3485   -1.8145    3.0902 H   0  0  0  0  0  0
    2.5733   -1.1854    2.3632 H   0  0  0  0  0  0
    2.1037   -1.1573    0.6755 H   0  0  0  0  0  0
    0.3792    0.6261    2.3245 H   0  0  0  0  0  0
    2.0789    1.0218    2.5293 H   0  0  0  0  0  0
    3.4163    0.9625    0.6176 H   0  0  0  0  0  0
    1.8497    1.6562   -1.9247 H   0  0  0  0  0  0
    3.6223    1.4950   -1.8285 H   0  0  0  0  0  0
    2.5692    0.1047   -1.5298 H   0  0  0  0  0  0
    3.7861    3.3545   -0.0585 H   0  0  0  0  0  0
    2.0233    3.5948   -0.1349 H   0  0  0  0  0  0
    2.7894    3.2449    1.4049 H   0  0  0  0  0  0
   -0.6893   -1.8114    1.2919 N   0  3  0  0  0  0
   -1.1327   -0.9238    1.5559 H   0  0  0  0  0  0
   -1.2968   -2.5924    1.5664 H   0  0  0  0  0  0
  1  2  1  0  0  0
  1 16  1  0  0  0
  1 17  1  0  0  0
  1 18  1  0  0  0
  2  3  1  0  0  0
  2 19  1  0  0  0
  2 20  1  0  0  0
  3  4  1  0  0  0
  3 21  1  0  0  0
  3 22  1  0  0  0
  4  5  1  0  0  0
  4 23  1  0  0  0
  4 24  1  0  0  0
  5  6  1  0  0  0
  5 25  1  0  0  0
  5 26  1  0  0  0
  6  7  1  0  0  0
  6 27  1  0  0  0
  6 46  1  0  0  0
  7  8  1  0  0  0
  7 28  1  0  0  0
  7 29  1  0  0  0
  8 30  1  0  0  0
  8 31  1  0  0  0
  8 32  1  0  0  0
  9 10  1  0  0  0
  9 33  1  0  0  0
  9 34  1  0  0  0
  9 46  1  0  0  0
 10 11  1  0  0  0
 10 35  1  0  0  0
 10 36  1  0  0  0
 11 12  1  0  0  0
 11 37  1  0  0  0
 11 38  1  0  0  0
 12 13  1  0  0  0
 13 14  1  0  0  0
 13 15  1  0  0  0
 13 39  1  0  0  0
 14 40  1  0  0  0
 14 41  1  0  0  0
 14 42  1  0  0  0
 15 43  1  0  0  0
 15 44  1  0  0  0
 15 45  1  0  0  0
 46 47  1  0  0  0
 46 48  1  0  0  0
M  CHG  1  46   1
M  END
> <energy>
17.1551

> <chiral flag>
0

> <version>
0

> <i_ionizer_Ion_state_n>
1

> <i_ionizer_Tot_Q>
1

> <s_ionizer_Ion_centers>
46

> <s_ionizer_Ion_types>
N5

> <s_ionizer_Ion_ctrs_in>
9

> <r_ionizer_Ionization_penalty>
0.000148807

> <r_ionizer_Ionization_penalty_charging>
0.000148807

> <r_ionizer_Ionization_penalty_neutral>
0

$$$$
ZINC001258432194
                    3D
 Structure written by MMmdl.
 48 47  0  0  1  0            999 V2000
   -3.8752    2.5013   -0.6751 C   0  0  0  0  0  0
   -3.5829    1.0831   -1.1372 C   0  0  0  0  0  0
   -2.0808    0.7955   -1.1886 C   0  0  0  0  0  0
   -1.7721   -0.6271   -1.6679 C   0  0  0  0  0  0
   -2.0383   -1.7406   -0.6372 C   0  0  0  0  0  0
   -0.8093   -2.1815    0.2012 C   0  0  1  0  0  0
    0.2874   -2.7689   -0.7159 C   0  0  0  0  0  0
    1.0736   -3.9070   -0.0729 C   0  0  0  0  0  0
    0.8075   -1.1807    1.8142 C   0  0  0  0  0  0
    1.0143    0.0542    2.7002 C   0  0  0  0  0  0
    1.2506    1.3345    1.8975 C   0  0  0  0  0  0
    2.5471    1.2978    1.2983 O   0  0  0  0  0  0
    2.6495    2.1449    0.1470 C   0  0  0  0  0  0
    2.2233    1.3651   -1.0916 C   0  0  0  0  0  0
    4.1007    2.5921    0.0198 C   0  0  0  0  0  0
   -4.9527    2.6868   -0.6975 H   0  0  0  0  0  0
   -3.5229    2.6577    0.3481 H   0  0  0  0  0  0
   -3.3917    3.2371   -1.3242 H   0  0  0  0  0  0
   -4.0859    0.3788   -0.4664 H   0  0  0  0  0  0
   -4.0121    0.9408   -2.1361 H   0  0  0  0  0  0
   -1.6277    0.9908   -0.2134 H   0  0  0  0  0  0
   -1.6151    1.4997   -1.8895 H   0  0  0  0  0  0
   -2.3789   -0.8301   -2.5596 H   0  0  0  0  0  0
   -0.7324   -0.6649   -2.0095 H   0  0  0  0  0  0
   -2.3974   -2.6227   -1.1827 H   0  0  0  0  0  0
   -2.8569   -1.4594    0.0355 H   0  0  0  0  0  0
   -1.1572   -2.9750    0.8765 H   0  0  0  0  0  0
    0.9824   -1.9862   -1.0433 H   0  0  0  0  0  0
   -0.1667   -3.1705   -1.6309 H   0  0  0  0  0  0
    1.6455   -3.5832    0.7994 H   0  0  0  0  0  0
    0.4014   -4.7128    0.2386 H   0  0  0  0  0  0
    1.7775   -4.3289   -0.7988 H   0  0  0  0  0  0
    1.6851   -1.3019    1.1703 H   0  0  0  0  0  0
    0.7256   -2.0626    2.4607 H   0  0  0  0  0  0
    1.8732   -0.1312    3.3547 H   0  0  0  0  0  0
    0.1387    0.1920    3.3457 H   0  0  0  0  0  0
    0.4632    1.4763    1.1498 H   0  0  0  0  0  0
    1.2239    2.1958    2.5743 H   0  0  0  0  0  0
    2.0222    3.0355    0.2713 H   0  0  0  0  0  0
    2.3263    1.9716   -1.9966 H   0  0  0  0  0  0
    2.8221    0.4552   -1.2082 H   0  0  0  0  0  0
    1.1816    1.0421   -1.0146 H   0  0  0  0  0  0
    4.2633    3.1735   -0.8931 H   0  0  0  0  0  0
    4.7842    1.7368    0.0184 H   0  0  0  0  0  0
    4.3810    3.2159    0.8750 H   0  0  0  0  0  0
   -0.4372   -0.9883    1.0213 N   0  3  0  0  0  0
   -0.3010   -0.1895    0.3907 H   0  0  0  0  0  0
   -1.2076   -0.7854    1.6691 H   0  0  0  0  0  0
  1  2  1  0  0  0
  1 16  1  0  0  0
  1 17  1  0  0  0
  1 18  1  0  0  0
  2  3  1  0  0  0
  2 19  1  0  0  0
  2 20  1  0  0  0
  3  4  1  0  0  0
  3 21  1  0  0  0
  3 22  1  0  0  0
  4  5  1  0  0  0
  4 23  1  0  0  0
  4 24  1  0  0  0
  5  6  1  0  0  0
  5 25  1  0  0  0
  5 26  1  0  0  0
  6  7  1  0  0  0
  6 27  1  0  0  0
  6 46  1  0  0  0
  7  8  1  0  0  0
  7 28  1  0  0  0
  7 29  1  0  0  0
  8 30  1  0  0  0
  8 31  1  0  0  0
  8 32  1  0  0  0
  9 10  1  0  0  0
  9 33  1  0  0  0
  9 34  1  0  0  0
  9 46  1  0  0  0
 10 11  1  0  0  0
 10 35  1  0  0  0
 10 36  1  0  0  0
 11 12  1  0  0  0
 11 37  1  0  0  0
 11 38  1  0  0  0
 12 13  1  0  0  0
 13 14  1  0  0  0
 13 15  1  0  0  0
 13 39  1  0  0  0
 14 40  1  0  0  0
 14 41  1  0  0  0
 14 42  1  0  0  0
 15 43  1  0  0  0
 15 44  1  0  0  0
 15 45  1  0  0  0
 46 47  1  0  0  0
 46 48  1  0  0  0
M  CHG  1  46   1
M  END
> <energy>
13.0603

> <chiral flag>
0

> <version>
0

> <i_ionizer_Ion_state_n>
1

> <i_ionizer_Tot_Q>
1

> <s_ionizer_Ion_centers>
46

> <s_ionizer_Ion_types>
N5

> <s_ionizer_Ion_ctrs_in>
9

> <r_ionizer_Ionization_penalty>
0.000148807

> <r_ionizer_Ionization_penalty_charging>
0.000148807

> <r_ionizer_Ionization_penalty_neutral>
0

$$$$
ZINC001258432215
                    3D
 Structure written by MMmdl.
 47 48  0  0  1  0            999 V2000
   -5.3456   -0.6738   -0.4808 C   0  0  0  0  0  0
   -4.0515   -1.4718   -0.3968 C   0  0  0  0  0  0
   -3.2865   -1.2169    0.9059 C   0  0  0  0  0  0
   -2.4930    0.0941    0.9091 C   0  0  0  0  0  0
   -1.0863   -0.0568    0.3036 C   0  0  0  0  0  0
   -0.4292    1.3172    0.0450 C   0  0  2  0  0  0
   -0.8368    1.8964   -1.3268 C   0  0  0  0  0  0
   -0.4093    3.3457   -1.5207 C   0  0  0  0  0  0
    1.8069    0.3952   -0.6436 C   0  0  1  0  0  0
    3.1451    0.8778   -1.1576 C   0  0  0  0  0  0
    3.0999   -0.2135   -0.1199 C   0  0  0  0  0  0
    3.4467   -1.6293   -0.5223 C   0  0  0  0  0  0
    2.8671   -2.6006    0.5080 C   0  0  0  0  0  0
    3.3348   -2.2962    1.8281 O   0  0  0  0  0  0
    2.9432   -0.9758    2.2331 C   0  0  0  0  0  0
    3.5485    0.0723    1.2990 C   0  0  0  0  0  0
   -5.8779   -0.9102   -1.4082 H   0  0  0  0  0  0
   -6.0098   -0.9197    0.3551 H   0  0  0  0  0  0
   -5.1609    0.4035   -0.4607 H   0  0  0  0  0  0
   -3.4264   -1.2524   -1.2706 H   0  0  0  0  0  0
   -4.3092   -2.5373   -0.4460 H   0  0  0  0  0  0
   -2.6058   -2.0567    1.0936 H   0  0  0  0  0  0
   -4.0006   -1.2074    1.7400 H   0  0  0  0  0  0
   -2.3721    0.4153    1.9519 H   0  0  0  0  0  0
   -3.0557    0.8864    0.4059 H   0  0  0  0  0  0
   -0.4857   -0.6376    1.0175 H   0  0  0  0  0  0
   -1.1227   -0.6412   -0.6234 H   0  0  0  0  0  0
   -0.7996    2.0069    0.8141 H   0  0  0  0  0  0
   -0.4169    1.2904   -2.1395 H   0  0  0  0  0  0
   -1.9265    1.8485   -1.4377 H   0  0  0  0  0  0
   -0.7548    3.7146   -2.4917 H   0  0  0  0  0  0
   -0.8429    3.9842   -0.7448 H   0  0  0  0  0  0
    0.6778    3.4555   -1.4931 H   0  0  0  0  0  0
    1.2288   -0.2311   -1.3207 H   0  0  0  0  0  0
    3.4189    0.6152   -2.1738 H   0  0  0  0  0  0
    3.5075    1.8529   -0.8504 H   0  0  0  0  0  0
    3.0773   -1.8736   -1.5229 H   0  0  0  0  0  0
    4.5398   -1.7251   -0.5436 H   0  0  0  0  0  0
    3.1825   -3.6217    0.2766 H   0  0  0  0  0  0
    1.7726   -2.5754    0.5020 H   0  0  0  0  0  0
    3.3091   -0.8216    3.2533 H   0  0  0  0  0  0
    1.8504   -0.9159    2.2569 H   0  0  0  0  0  0
    4.6423    0.0011    1.3336 H   0  0  0  0  0  0
    3.2841    1.0817    1.6289 H   0  0  0  0  0  0
    1.0547    1.3096    0.2776 N   0  3  0  0  0  0
    1.4081    2.2645    0.1455 H   0  0  0  0  0  0
    1.2294    1.0106    1.2442 H   0  0  0  0  0  0
  1  2  1  0  0  0
  1 17  1  0  0  0
  1 18  1  0  0  0
  1 19  1  0  0  0
  2  3  1  0  0  0
  2 20  1  0  0  0
  2 21  1  0  0  0
  3  4  1  0  0  0
  3 22  1  0  0  0
  3 23  1  0  0  0
  4  5  1  0  0  0
  4 24  1  0  0  0
  4 25  1  0  0  0
  5  6  1  0  0  0
  5 26  1  0  0  0
  5 27  1  0  0  0
  6  7  1  0  0  0
  6 28  1  0  0  0
  6 45  1  0  0  0
  7  8  1  0  0  0
  7 29  1  0  0  0
  7 30  1  0  0  0
  8 31  1  0  0  0
  8 32  1  0  0  0
  8 33  1  0  0  0
  9 10  1  0  0  0
  9 11  1  0  0  0
  9 34  1  0  0  0
  9 45  1  0  0  0
 10 11  1  0  0  0
 10 35  1  0  0  0
 10 36  1  0  0  0
 11 12  1  0  0  0
 11 16  1  0  0  0
 12 13  1  0  0  0
 12 37  1  0  0  0
 12 38  1  0  0  0
 13 14  1  0  0  0
 13 39  1  0  0  0
 13 40  1  0  0  0
 14 15  1  0  0  0
 15 16  1  0  0  0
 15 41  1  0  0  0
 15 42  1  0  0  0
 16 43  1  0  0  0
 16 44  1  0  0  0
 45 46  1  0  0  0
 45 47  1  0  0  0
M  CHG  1  45   1
M  END
> <energy>
27.8766

> <chiral flag>
0

> <version>
0

> <i_ionizer_Ion_state_n>
1

> <i_ionizer_Tot_Q>
1

> <s_ionizer_Ion_centers>
45

> <s_ionizer_Ion_types>
N5

> <s_ionizer_Ion_ctrs_in>
9

> <r_ionizer_Ionization_penalty>
0.000148807

> <r_ionizer_Ionization_penalty_charging>
0.000148807

> <r_ionizer_Ionization_penalty_neutral>
0

$$$$
ZINC001258432217
                    3D
 Structure written by MMmdl.
 47 48  0  0  1  0            999 V2000
   -3.9102    1.6016    0.7685 C   0  0  0  0  0  0
   -3.5566    1.7290   -0.7067 C   0  0  0  0  0  0
   -2.2947    0.9449   -1.0747 C   0  0  0  0  0  0
   -2.5445   -0.5587   -1.2465 C   0  0  0  0  0  0
   -1.2368   -1.3605   -1.3066 C   0  0  0  0  0  0
   -0.5695   -1.5374    0.0763 C   0  0  1  0  0  0
   -1.2406   -2.6918    0.8544 C   0  0  0  0  0  0
   -0.7328   -2.8773    2.2806 C   0  0  0  0  0  0
    1.7373   -0.9652    0.6786 C   0  0  1  0  0  0
    3.1970   -0.8791    0.3334 C   0  0  0  0  0  0
    2.3090    0.3292    0.1300 C   0  0  0  0  0  0
    2.0002    0.7593   -1.2894 C   0  0  0  0  0  0
    2.9813    1.8423   -1.7277 C   0  0  0  0  0  0
    2.9510    2.9520   -0.8206 O   0  0  0  0  0  0
    3.3652    2.5605    0.4928 C   0  0  0  0  0  0
    2.4218    1.5077    1.0736 C   0  0  0  0  0  0
   -3.0794    1.9354    1.3996 H   0  0  0  0  0  0
   -4.7777    2.2223    1.0100 H   0  0  0  0  0  0
   -4.1470    0.5696    1.0395 H   0  0  0  0  0  0
   -4.4062    1.4107   -1.3227 H   0  0  0  0  0  0
   -3.3845    2.7901   -0.9236 H   0  0  0  0  0  0
   -1.5179    1.1394   -0.3259 H   0  0  0  0  0  0
   -1.9063    1.3359   -2.0240 H   0  0  0  0  0  0
   -3.1917   -0.9465   -0.4556 H   0  0  0  0  0  0
   -3.0883   -0.7071   -2.1871 H   0  0  0  0  0  0
   -1.4496   -2.3488   -1.7359 H   0  0  0  0  0  0
   -0.5593   -0.8595   -2.0121 H   0  0  0  0  0  0
   -0.6909   -0.6143    0.6548 H   0  0  0  0  0  0
   -1.1128   -3.6377    0.3097 H   0  0  0  0  0  0
   -2.3213   -2.5143    0.9084 H   0  0  0  0  0  0
    0.3189   -3.1783    2.3046 H   0  0  0  0  0  0
   -0.8508   -1.9565    2.8600 H   0  0  0  0  0  0
   -1.3082   -3.6697    2.7758 H   0  0  0  0  0  0
    1.5117   -0.9971    1.7433 H   0  0  0  0  0  0
    3.9058   -0.8680    1.1553 H   0  0  0  0  0  0
    3.5558   -1.4099   -0.5396 H   0  0  0  0  0  0
    2.0528   -0.0789   -1.9894 H   0  0  0  0  0  0
    0.9801    1.1605   -1.3183 H   0  0  0  0  0  0
    2.7058    2.2200   -2.7173 H   0  0  0  0  0  0
    4.0060    1.4549   -1.7890 H   0  0  0  0  0  0
    4.3945    2.1871    0.4503 H   0  0  0  0  0  0
    3.3581    3.4559    1.1223 H   0  0  0  0  0  0
    2.7753    1.2010    2.0650 H   0  0  0  0  0  0
    1.4241    1.9443    1.2032 H   0  0  0  0  0  0
    0.8689   -1.8202   -0.1651 N   0  3  0  0  0  0
    1.0569   -2.8056    0.0534 H   0  0  0  0  0  0
    1.0832   -1.6417   -1.1532 H   0  0  0  0  0  0
  1  2  1  0  0  0
  1 17  1  0  0  0
  1 18  1  0  0  0
  1 19  1  0  0  0
  2  3  1  0  0  0
  2 20  1  0  0  0
  2 21  1  0  0  0
  3  4  1  0  0  0
  3 22  1  0  0  0
  3 23  1  0  0  0
  4  5  1  0  0  0
  4 24  1  0  0  0
  4 25  1  0  0  0
  5  6  1  0  0  0
  5 26  1  0  0  0
  5 27  1  0  0  0
  6  7  1  0  0  0
  6 28  1  0  0  0
  6 45  1  0  0  0
  7  8  1  0  0  0
  7 29  1  0  0  0
  7 30  1  0  0  0
  8 31  1  0  0  0
  8 32  1  0  0  0
  8 33  1  0  0  0
  9 10  1  0  0  0
  9 11  1  0  0  0
  9 34  1  0  0  0
  9 45  1  0  0  0
 10 11  1  0  0  0
 10 35  1  0  0  0
 10 36  1  0  0  0
 11 12  1  0  0  0
 11 16  1  0  0  0
 12 13  1  0  0  0
 12 37  1  0  0  0
 12 38  1  0  0  0
 13 14  1  0  0  0
 13 39  1  0  0  0
 13 40  1  0  0  0
 14 15  1  0  0  0
 15 16  1  0  0  0
 15 41  1  0  0  0
 15 42  1  0  0  0
 16 43  1  0  0  0
 16 44  1  0  0  0
 45 46  1  0  0  0
 45 47  1  0  0  0
M  CHG  1  45   1
M  END
> <energy>
25.845

> <chiral flag>
0

> <version>
0

> <i_ionizer_Ion_state_n>
1

> <i_ionizer_Tot_Q>
1

> <s_ionizer_Ion_centers>
45

> <s_ionizer_Ion_types>
N5

> <s_ionizer_Ion_ctrs_in>
9

> <r_ionizer_Ionization_penalty>
0.000148807

> <r_ionizer_Ionization_penalty_charging>
0.000148807

> <r_ionizer_Ionization_penalty_neutral>
0

$$$$
ZINC001258432219
                    3D
 Structure written by MMmdl.
 47 48  0  0  1  0            999 V2000
   -0.8871   -5.3831    1.1755 C   0  0  0  0  0  0
   -0.2931   -4.2960    0.2951 C   0  0  0  0  0  0
   -1.3033   -3.1924   -0.0166 C   0  0  0  0  0  0
   -0.7300   -2.1911   -1.0279 C   0  0  0  0  0  0
   -1.7064   -1.0511   -1.3301 C   0  0  0  0  0  0
   -1.7168    0.0788   -0.2709 C   0  0  2  0  0  0
   -3.0799    0.7948   -0.2936 C   0  0  0  0  0  0
   -3.2597    1.7638    0.8669 C   0  0  0  0  0  0
    0.5150    0.9395    0.3512 C   0  0  2  0  0  0
    0.6817    1.9272    1.4643 C   0  0  0  0  0  0
    1.6487    1.9565    0.3029 C   0  0  0  0  0  0
    1.5949    3.1488   -0.6366 C   0  0  0  0  0  0
    2.9258    3.9008   -0.6040 C   0  0  0  0  0  0
    4.0352    3.0970   -1.0193 O   0  0  0  0  0  0
    3.9180    1.7066   -0.6933 C   0  0  0  0  0  0
    3.0619    1.4539    0.5442 C   0  0  0  0  0  0
   -1.7028   -5.9033    0.6647 H   0  0  0  0  0  0
   -1.2764   -4.9681    2.1096 H   0  0  0  0  0  0
   -0.1207   -6.1245    1.4257 H   0  0  0  0  0  0
    0.5779   -3.8626    0.7990 H   0  0  0  0  0  0
    0.0670   -4.7486   -0.6349 H   0  0  0  0  0  0
   -1.5873   -2.6836    0.9122 H   0  0  0  0  0  0
   -2.2170   -3.6371   -0.4325 H   0  0  0  0  0  0
    0.2288   -1.7999   -0.6796 H   0  0  0  0  0  0
   -0.5267   -2.7206   -1.9661 H   0  0  0  0  0  0
   -1.4616   -0.6260   -2.3155 H   0  0  0  0  0  0
   -2.7148   -1.4733   -1.4381 H   0  0  0  0  0  0
   -1.6018   -0.3580    0.7276 H   0  0  0  0  0  0
   -3.2305    1.3196   -1.2443 H   0  0  0  0  0  0
   -3.8844    0.0497   -0.2233 H   0  0  0  0  0  0
   -4.2754    2.1749    0.8646 H   0  0  0  0  0  0
   -3.1001    1.2539    1.8232 H   0  0  0  0  0  0
   -2.5610    2.6008    0.8031 H   0  0  0  0  0  0
    0.8189   -0.0825    0.5653 H   0  0  0  0  0  0
    1.0158    1.5478    2.4236 H   0  0  0  0  0  0
   -0.0403    2.7342    1.5525 H   0  0  0  0  0  0
    1.4090    2.7960   -1.6577 H   0  0  0  0  0  0
    0.7824    3.8346   -0.3662 H   0  0  0  0  0  0
    3.1396    4.2694    0.4059 H   0  0  0  0  0  0
    2.8873    4.7697   -1.2674 H   0  0  0  0  0  0
    4.9305    1.3201   -0.5401 H   0  0  0  0  0  0
    3.4998    1.1913   -1.5666 H   0  0  0  0  0  0
    3.0701    0.3850    0.7868 H   0  0  0  0  0  0
    3.4843    1.9942    1.3987 H   0  0  0  0  0  0
   -0.6502    1.0880   -0.5545 N   0  3  0  0  0  0
   -0.3328    0.9705   -1.5239 H   0  0  0  0  0  0
   -1.0443    2.0285   -0.4351 H   0  0  0  0  0  0
  1  2  1  0  0  0
  1 17  1  0  0  0
  1 18  1  0  0  0
  1 19  1  0  0  0
  2  3  1  0  0  0
  2 20  1  0  0  0
  2 21  1  0  0  0
  3  4  1  0  0  0
  3 22  1  0  0  0
  3 23  1  0  0  0
  4  5  1  0  0  0
  4 24  1  0  0  0
  4 25  1  0  0  0
  5  6  1  0  0  0
  5 26  1  0  0  0
  5 27  1  0  0  0
  6  7  1  0  0  0
  6 28  1  0  0  0
  6 45  1  0  0  0
  7  8  1  0  0  0
  7 29  1  0  0  0
  7 30  1  0  0  0
  8 31  1  0  0  0
  8 32  1  0  0  0
  8 33  1  0  0  0
  9 10  1  0  0  0
  9 11  1  0  0  0
  9 34  1  0  0  0
  9 45  1  0  0  0
 10 11  1  0  0  0
 10 35  1  0  0  0
 10 36  1  0  0  0
 11 12  1  0  0  0
 11 16  1  0  0  0
 12 13  1  0  0  0
 12 37  1  0  0  0
 12 38  1  0  0  0
 13 14  1  0  0  0
 13 39  1  0  0  0
 13 40  1  0  0  0
 14 15  1  0  0  0
 15 16  1  0  0  0
 15 41  1  0  0  0
 15 42  1  0  0  0
 16 43  1  0  0  0
 16 44  1  0  0  0
 45 46  1  0  0  0
 45 47  1  0  0  0
M  CHG  1  45   1
M  END
> <energy>
30.7089

> <chiral flag>
0

> <version>
0

> <i_ionizer_Ion_state_n>
1

> <i_ionizer_Tot_Q>
1

> <s_ionizer_Ion_centers>
45

> <s_ionizer_Ion_types>
N5

> <s_ionizer_Ion_ctrs_in>
9

> <r_ionizer_Ionization_penalty>
0.000148807

> <r_ionizer_Ionization_penalty_charging>
0.000148807

> <r_ionizer_Ionization_penalty_neutral>
0

$$$$
ZINC001258432221
                    3D
 Structure written by MMmdl.
 47 48  0  0  1  0            999 V2000
   -3.4555    1.5747   -0.6464 C   0  0  0  0  0  0
   -3.6498    0.8989    0.7031 C   0  0  0  0  0  0
   -3.7750   -0.6256    0.6250 C   0  0  0  0  0  0
   -2.5632   -1.3398    0.0283 C   0  0  0  0  0  0
   -1.3387   -1.3308    0.9546 C   0  0  0  0  0  0
    0.0065   -1.6352    0.2539 C   0  0  1  0  0  0
    0.0090   -2.9449   -0.5556 C   0  0  0  0  0  0
   -0.1324   -4.1784    0.3327 C   0  0  0  0  0  0
    1.7064   -0.2354   -0.9499 C   0  0  2  0  0  0
    2.8986   -0.4601   -0.0769 C   0  0  0  0  0  0
    2.4057    0.9509   -0.2950 C   0  0  0  0  0  0
    3.1455    1.8971   -1.2280 C   0  0  0  0  0  0
    3.6536    3.1168   -0.4603 C   0  0  0  0  0  0
    2.6044    3.8730    0.1506 O   0  0  0  0  0  0
    1.4758    3.0923    0.5701 C   0  0  0  0  0  0
    1.8519    1.6602    0.9372 C   0  0  0  0  0  0
   -4.1739    1.2056   -1.3842 H   0  0  0  0  0  0
   -3.5972    2.6554   -0.5460 H   0  0  0  0  0  0
   -2.4472    1.4109   -1.0402 H   0  0  0  0  0  0
   -4.5665    1.2915    1.1575 H   0  0  0  0  0  0
   -2.8335    1.1887    1.3715 H   0  0  0  0  0  0
   -3.9726   -1.0194    1.6280 H   0  0  0  0  0  0
   -4.6542   -0.8738    0.0184 H   0  0  0  0  0  0
   -2.8408   -2.3820   -0.1670 H   0  0  0  0  0  0
   -2.3302   -0.9089   -0.9497 H   0  0  0  0  0  0
   -1.5058   -2.0459    1.7676 H   0  0  0  0  0  0
   -1.2478   -0.3561    1.4511 H   0  0  0  0  0  0
    0.7473   -1.7133    1.0580 H   0  0  0  0  0  0
   -0.7878   -2.9505   -1.3122 H   0  0  0  0  0  0
    0.9555   -3.0341   -1.1025 H   0  0  0  0  0  0
    0.6724   -4.2094    1.0759 H   0  0  0  0  0  0
   -1.0880   -4.1916    0.8655 H   0  0  0  0  0  0
   -0.0725   -5.0894   -0.2727 H   0  0  0  0  0  0
    1.9046   -0.4192   -2.0063 H   0  0  0  0  0  0
    2.7653   -0.9165    0.8991 H   0  0  0  0  0  0
    3.8234   -0.7655   -0.5587 H   0  0  0  0  0  0
    2.4412    2.2385   -1.9960 H   0  0  0  0  0  0
    3.9770    1.3947   -1.7332 H   0  0  0  0  0  0
    4.1954    3.7924   -1.1307 H   0  0  0  0  0  0
    4.3575    2.8122    0.3212 H   0  0  0  0  0  0
    1.0226    3.6028    1.4246 H   0  0  0  0  0  0
    0.7473    3.1013   -0.2472 H   0  0  0  0  0  0
    2.6373    1.6824    1.7041 H   0  0  0  0  0  0
    0.9941    1.1355    1.3694 H   0  0  0  0  0  0
    0.2676   -0.4342   -0.6075 N   0  3  0  0  0  0
   -0.2604   -0.5424   -1.4815 H   0  0  0  0  0  0
   -0.0638    0.3997   -0.1085 H   0  0  0  0  0  0
  1  2  1  0  0  0
  1 17  1  0  0  0
  1 18  1  0  0  0
  1 19  1  0  0  0
  2  3  1  0  0  0
  2 20  1  0  0  0
  2 21  1  0  0  0
  3  4  1  0  0  0
  3 22  1  0  0  0
  3 23  1  0  0  0
  4  5  1  0  0  0
  4 24  1  0  0  0
  4 25  1  0  0  0
  5  6  1  0  0  0
  5 26  1  0  0  0
  5 27  1  0  0  0
  6  7  1  0  0  0
  6 28  1  0  0  0
  6 45  1  0  0  0
  7  8  1  0  0  0
  7 29  1  0  0  0
  7 30  1  0  0  0
  8 31  1  0  0  0
  8 32  1  0  0  0
  8 33  1  0  0  0
  9 10  1  0  0  0
  9 11  1  0  0  0
  9 34  1  0  0  0
  9 45  1  0  0  0
 10 11  1  0  0  0
 10 35  1  0  0  0
 10 36  1  0  0  0
 11 12  1  0  0  0
 11 16  1  0  0  0
 12 13  1  0  0  0
 12 37  1  0  0  0
 12 38  1  0  0  0
 13 14  1  0  0  0
 13 39  1  0  0  0
 13 40  1  0  0  0
 14 15  1  0  0  0
 15 16  1  0  0  0
 15 41  1  0  0  0
 15 42  1  0  0  0
 16 43  1  0  0  0
 16 44  1  0  0  0
 45 46  1  0  0  0
 45 47  1  0  0  0
M  CHG  1  45   1
M  END
> <energy>
33.4977

> <chiral flag>
0

> <version>
0

> <i_ionizer_Ion_state_n>
1

> <i_ionizer_Tot_Q>
1

> <s_ionizer_Ion_centers>
45

> <s_ionizer_Ion_types>
N5

> <s_ionizer_Ion_ctrs_in>
9

> <r_ionizer_Ionization_penalty>
0.000148807

> <r_ionizer_Ionization_penalty_charging>
0.000148807

> <r_ionizer_Ionization_penalty_neutral>
0

$$$$
ZINC001258432290
                    3D
 Structure written by MMmdl.
 49 49  0  0  1  0            999 V2000
    0.7258   -3.7318   -3.0152 C   0  0  0  0  0  0
    0.6212   -2.2261   -3.2067 C   0  0  0  0  0  0
   -0.3827   -1.6118   -2.2348 C   0  0  0  0  0  0
   -0.2512   -0.0858   -2.1507 C   0  0  0  0  0  0
   -1.5025    0.5136   -1.4938 C   0  0  0  0  0  0
   -1.4144    1.9270   -0.8667 C   0  0  2  0  0  0
   -0.7013    2.9887   -1.7366 C   0  0  0  0  0  0
    0.7693    3.2283   -1.4310 C   0  0  0  0  0  0
   -0.1458    1.0640    1.1482 C   0  0  1  0  0  0
    0.9131    1.7815    1.9893 C   0  0  0  0  0  0
    1.8392    0.7455    2.6115 C   0  0  0  0  0  0
    1.1169   -0.1449    3.4574 O   0  0  0  0  0  0
    0.0415   -0.8606    2.8291 C   0  0  0  0  0  0
   -0.7490   -1.5025    3.9816 C   0  0  0  0  0  0
    0.5923   -1.9786    1.9338 C   0  0  0  0  0  0
   -0.9017    0.0890    2.0598 C   0  0  0  0  0  0
   -0.2535   -4.2103   -3.1010 H   0  0  0  0  0  0
    1.1368   -3.9691   -2.0298 H   0  0  0  0  0  0
    1.3873   -4.1677   -3.7689 H   0  0  0  0  0  0
    1.6134   -1.7737   -3.0760 H   0  0  0  0  0  0
    0.3034   -2.0135   -4.2354 H   0  0  0  0  0  0
   -0.2384   -2.0293   -1.2314 H   0  0  0  0  0  0
   -1.3970   -1.8873   -2.5492 H   0  0  0  0  0  0
    0.6686    0.1480   -1.6089 H   0  0  0  0  0  0
   -0.1345    0.3444   -3.1536 H   0  0  0  0  0  0
   -1.9103   -0.1777   -0.7457 H   0  0  0  0  0  0
   -2.2733    0.5462   -2.2787 H   0  0  0  0  0  0
   -2.4652    2.2540   -0.8835 H   0  0  0  0  0  0
   -1.2181    3.9485   -1.6018 H   0  0  0  0  0  0
   -0.8112    2.7389   -2.7977 H   0  0  0  0  0  0
    1.3417    2.3012   -1.4117 H   0  0  0  0  0  0
    1.2126    3.8737   -2.1959 H   0  0  0  0  0  0
    0.8931    3.7369   -0.4708 H   0  0  0  0  0  0
    0.3806    0.5071    0.3779 H   0  0  0  0  0  0
    0.4260    2.3547    2.7896 H   0  0  0  0  0  0
    1.4964    2.4804    1.3795 H   0  0  0  0  0  0
    2.3831    0.1828    1.8466 H   0  0  0  0  0  0
    2.5918    1.2529    3.2258 H   0  0  0  0  0  0
   -1.6737   -1.9698    3.6265 H   0  0  0  0  0  0
   -1.0080   -0.7538    4.7398 H   0  0  0  0  0  0
   -0.1506   -2.2648    4.4920 H   0  0  0  0  0  0
   -0.2174   -2.5839    1.5151 H   0  0  0  0  0  0
    1.2544   -2.6387    2.5045 H   0  0  0  0  0  0
    1.1862   -1.5894    1.1019 H   0  0  0  0  0  0
   -1.6289   -0.4984    1.4846 H   0  0  0  0  0  0
   -1.4842    0.6760    2.7844 H   0  0  0  0  0  0
   -1.1238    2.0627    0.6056 N   0  3  0  0  0  0
   -0.7454    3.0026    0.7713 H   0  0  0  0  0  0
   -2.0076    1.9544    1.1170 H   0  0  0  0  0  0
  1  2  1  0  0  0
  1 17  1  0  0  0
  1 18  1  0  0  0
  1 19  1  0  0  0
  2  3  1  0  0  0
  2 20  1  0  0  0
  2 21  1  0  0  0
  3  4  1  0  0  0
  3 22  1  0  0  0
  3 23  1  0  0  0
  4  5  1  0  0  0
  4 24  1  0  0  0
  4 25  1  0  0  0
  5  6  1  0  0  0
  5 26  1  0  0  0
  5 27  1  0  0  0
  6  7  1  0  0  0
  6 28  1  0  0  0
  6 47  1  0  0  0
  7  8  1  0  0  0
  7 29  1  0  0  0
  7 30  1  0  0  0
  8 31  1  0  0  0
  8 32  1  0  0  0
  8 33  1  0  0  0
  9 10  1  0  0  0
  9 16  1  0  0  0
  9 34  1  0  0  0
  9 47  1  0  0  0
 10 11  1  0  0  0
 10 35  1  0  0  0
 10 36  1  0  0  0
 11 12  1  0  0  0
 11 37  1  0  0  0
 11 38  1  0  0  0
 12 13  1  0  0  0
 13 14  1  0  0  0
 13 15  1  0  0  0
 13 16  1  0  0  0
 14 39  1  0  0  0
 14 40  1  0  0  0
 14 41  1  0  0  0
 15 42  1  0  0  0
 15 43  1  0  0  0
 15 44  1  0  0  0
 16 45  1  0  0  0
 16 46  1  0  0  0
 47 48  1  0  0  0
 47 49  1  0  0  0
M  CHG  1  47   1
M  END
> <energy>
27.7691

> <chiral flag>
0

> <version>
0

> <i_ionizer_Ion_state_n>
1

> <i_ionizer_Tot_Q>
1

> <s_ionizer_Ion_centers>
47

> <s_ionizer_Ion_types>
N5

> <s_ionizer_Ion_ctrs_in>
9

> <r_ionizer_Ionization_penalty>
0.000148807

> <r_ionizer_Ionization_penalty_charging>
0.000148807

> <r_ionizer_Ionization_penalty_neutral>
0

$$$$
ZINC001258432291
                    3D
 Structure written by MMmdl.
 49 49  0  0  1  0            999 V2000
   -3.7293    2.7204    0.7202 C   0  0  0  0  0  0
   -4.4101    1.5830   -0.0269 C   0  0  0  0  0  0
   -3.4377    0.7273   -0.8405 C   0  0  0  0  0  0
   -2.5153   -0.1388    0.0229 C   0  0  0  0  0  0
   -1.5561   -0.9615   -0.8490 C   0  0  0  0  0  0
   -0.6266   -1.8621    0.0004 C   0  0  1  0  0  0
   -0.9685   -3.3605   -0.1637 C   0  0  0  0  0  0
   -0.6933   -3.9590   -1.5399 C   0  0  0  0  0  0
    1.3425   -0.4152    0.2818 C   0  0  1  0  0  0
    1.9358   -0.7238    1.6606 C   0  0  0  0  0  0
    2.6323    0.5058    2.2252 C   0  0  0  0  0  0
    3.6284    1.0021    1.3328 O   0  0  0  0  0  0
    3.1527    1.3555    0.0238 C   0  0  0  0  0  0
    4.3959    1.7076   -0.8060 C   0  0  0  0  0  0
    2.2593    2.6039    0.0894 C   0  0  0  0  0  0
    2.4428    0.1515   -0.6230 C   0  0  0  0  0  0
   -3.1566    3.3522    0.0337 H   0  0  0  0  0  0
   -3.0514    2.3462    1.4925 H   0  0  0  0  0  0
   -4.4782    3.3507    1.2124 H   0  0  0  0  0  0
   -5.1480    2.0156   -0.7123 H   0  0  0  0  0  0
   -4.9644    0.9570    0.6811 H   0  0  0  0  0  0
   -2.8396    1.3732   -1.4944 H   0  0  0  0  0  0
   -4.0241    0.0697   -1.4956 H   0  0  0  0  0  0
   -1.9319    0.4902    0.7049 H   0  0  0  0  0  0
   -3.1202   -0.8145    0.6381 H   0  0  0  0  0  0
   -0.9705   -0.2662   -1.4653 H   0  0  0  0  0  0
   -2.1472   -1.5586   -1.5531 H   0  0  0  0  0  0
   -0.7701   -1.6403    1.0653 H   0  0  0  0  0  0
   -0.3997   -3.9371    0.5769 H   0  0  0  0  0  0
   -2.0272   -3.5101    0.0802 H   0  0  0  0  0  0
    0.3713   -3.9226   -1.7903 H   0  0  0  0  0  0
   -0.9996   -5.0107   -1.5524 H   0  0  0  0  0  0
   -1.2499   -3.4461   -2.3283 H   0  0  0  0  0  0
    0.5614    0.3460    0.3857 H   0  0  0  0  0  0
    1.1611   -1.0635    2.3560 H   0  0  0  0  0  0
    2.6732   -1.5318    1.5701 H   0  0  0  0  0  0
    3.1367    0.2412    3.1604 H   0  0  0  0  0  0
    1.9160    1.2975    2.4680 H   0  0  0  0  0  0
    4.1258    1.9956   -1.8282 H   0  0  0  0  0  0
    5.0885    0.8594   -0.8559 H   0  0  0  0  0  0
    4.9518    2.5336   -0.3468 H   0  0  0  0  0  0
    1.3447    2.4392    0.6662 H   0  0  0  0  0  0
    1.9639    2.9338   -0.9122 H   0  0  0  0  0  0
    2.7864    3.4262    0.5858 H   0  0  0  0  0  0
    3.1840   -0.6408   -0.8037 H   0  0  0  0  0  0
    2.0294    0.4317   -1.6010 H   0  0  0  0  0  0
    0.7960   -1.6386   -0.3668 N   0  3  0  0  0  0
    1.3490   -2.4502   -0.0673 H   0  0  0  0  0  0
    0.8649   -1.5348   -1.3860 H   0  0  0  0  0  0
  1  2  1  0  0  0
  1 17  1  0  0  0
  1 18  1  0  0  0
  1 19  1  0  0  0
  2  3  1  0  0  0
  2 20  1  0  0  0
  2 21  1  0  0  0
  3  4  1  0  0  0
  3 22  1  0  0  0
  3 23  1  0  0  0
  4  5  1  0  0  0
  4 24  1  0  0  0
  4 25  1  0  0  0
  5  6  1  0  0  0
  5 26  1  0  0  0
  5 27  1  0  0  0
  6  7  1  0  0  0
  6 28  1  0  0  0
  6 47  1  0  0  0
  7  8  1  0  0  0
  7 29  1  0  0  0
  7 30  1  0  0  0
  8 31  1  0  0  0
  8 32  1  0  0  0
  8 33  1  0  0  0
  9 10  1  0  0  0
  9 16  1  0  0  0
  9 34  1  0  0  0
  9 47  1  0  0  0
 10 11  1  0  0  0
 10 35  1  0  0  0
 10 36  1  0  0  0
 11 12  1  0  0  0
 11 37  1  0  0  0
 11 38  1  0  0  0
 12 13  1  0  0  0
 13 14  1  0  0  0
 13 15  1  0  0  0
 13 16  1  0  0  0
 14 39  1  0  0  0
 14 40  1  0  0  0
 14 41  1  0  0  0
 15 42  1  0  0  0
 15 43  1  0  0  0
 15 44  1  0  0  0
 16 45  1  0  0  0
 16 46  1  0  0  0
 47 48  1  0  0  0
 47 49  1  0  0  0
M  CHG  1  47   1
M  END
> <energy>
18.3785

> <chiral flag>
0

> <version>
0

> <i_ionizer_Ion_state_n>
1

> <i_ionizer_Tot_Q>
1

> <s_ionizer_Ion_centers>
47

> <s_ionizer_Ion_types>
N5

> <s_ionizer_Ion_ctrs_in>
9

> <r_ionizer_Ionization_penalty>
0.000148807

> <r_ionizer_Ionization_penalty_charging>
0.000148807

> <r_ionizer_Ionization_penalty_neutral>
0

$$$$
ZINC001258432292
                    3D
 Structure written by MMmdl.
 49 49  0  0  1  0            999 V2000
   -3.5744    0.9645    3.8441 C   0  0  0  0  0  0
   -2.3012    1.3536    3.1043 C   0  0  0  0  0  0
   -2.1413    0.6389    1.7554 C   0  0  0  0  0  0
   -1.8461   -0.8581    1.8946 C   0  0  0  0  0  0
   -1.8163   -1.6526    0.5744 C   0  0  0  0  0  0
   -0.7834   -1.2539   -0.5166 C   0  0  2  0  0  0
   -0.7835   -2.3214   -1.6436 C   0  0  0  0  0  0
   -0.3062   -3.7210   -1.2615 C   0  0  0  0  0  0
    1.6734   -0.7418   -0.7956 C   0  0  2  0  0  0
    2.8803   -0.4107    0.1102 C   0  0  0  0  0  0
    3.6200    0.8474   -0.3188 C   0  0  0  0  0  0
    2.7024    1.9265   -0.4653 O   0  0  0  0  0  0
    1.7573    1.7652   -1.5327 C   0  0  0  0  0  0
    0.4524    2.4209   -1.0774 C   0  0  0  0  0  0
    2.2869    2.5543   -2.7356 C   0  0  0  0  0  0
    1.5379    0.2942   -1.9306 C   0  0  0  0  0  0
   -3.6349    1.4970    4.7974 H   0  0  0  0  0  0
   -4.4631    1.2196    3.2562 H   0  0  0  0  0  0
   -3.6119   -0.1067    4.0695 H   0  0  0  0  0  0
   -1.4307    1.1700    3.7450 H   0  0  0  0  0  0
   -2.3302    2.4355    2.9177 H   0  0  0  0  0  0
   -3.0353    0.7890    1.1380 H   0  0  0  0  0  0
   -1.3115    1.1160    1.2286 H   0  0  0  0  0  0
   -2.6135   -1.3218    2.5245 H   0  0  0  0  0  0
   -0.9002   -0.9990    2.4265 H   0  0  0  0  0  0
   -2.8173   -1.6001    0.1280 H   0  0  0  0  0  0
   -1.6712   -2.7046    0.8569 H   0  0  0  0  0  0
   -1.1387   -0.3194   -0.9633 H   0  0  0  0  0  0
   -0.1842   -1.9644   -2.4926 H   0  0  0  0  0  0
   -1.8033   -2.4139   -2.0310 H   0  0  0  0  0  0
    0.6173   -3.6933   -0.6850 H   0  0  0  0  0  0
   -0.1153   -4.2992   -2.1730 H   0  0  0  0  0  0
   -1.0660   -4.2642   -0.6912 H   0  0  0  0  0  0
    1.9097   -1.6986   -1.2757 H   0  0  0  0  0  0
    2.5541   -0.2567    1.1471 H   0  0  0  0  0  0
    3.5742   -1.2606    0.1431 H   0  0  0  0  0  0
    4.3349    1.1322    0.4620 H   0  0  0  0  0  0
    4.2024    0.7028   -1.2356 H   0  0  0  0  0  0
   -0.3267    2.3556   -1.8515 H   0  0  0  0  0  0
    0.6049    3.4801   -0.8383 H   0  0  0  0  0  0
    0.0739    1.9572   -0.1646 H   0  0  0  0  0  0
    2.6409    3.5428   -2.4298 H   0  0  0  0  0  0
    1.5260    2.6814   -3.5153 H   0  0  0  0  0  0
    3.1505    2.0514   -3.1911 H   0  0  0  0  0  0
    2.3260    0.0313   -2.6540 H   0  0  0  0  0  0
    0.6093    0.1747   -2.4957 H   0  0  0  0  0  0
    0.5309   -1.0011    0.1503 N   0  3  0  0  0  0
    0.4279   -0.1820    0.7607 H   0  0  0  0  0  0
    0.7653   -1.8238    0.7181 H   0  0  0  0  0  0
  1  2  1  0  0  0
  1 17  1  0  0  0
  1 18  1  0  0  0
  1 19  1  0  0  0
  2  3  1  0  0  0
  2 20  1  0  0  0
  2 21  1  0  0  0
  3  4  1  0  0  0
  3 22  1  0  0  0
  3 23  1  0  0  0
  4  5  1  0  0  0
  4 24  1  0  0  0
  4 25  1  0  0  0
  5  6  1  0  0  0
  5 26  1  0  0  0
  5 27  1  0  0  0
  6  7  1  0  0  0
  6 28  1  0  0  0
  6 47  1  0  0  0
  7  8  1  0  0  0
  7 29  1  0  0  0
  7 30  1  0  0  0
  8 31  1  0  0  0
  8 32  1  0  0  0
  8 33  1  0  0  0
  9 10  1  0  0  0
  9 16  1  0  0  0
  9 34  1  0  0  0
  9 47  1  0  0  0
 10 11  1  0  0  0
 10 35  1  0  0  0
 10 36  1  0  0  0
 11 12  1  0  0  0
 11 37  1  0  0  0
 11 38  1  0  0  0
 12 13  1  0  0  0
 13 14  1  0  0  0
 13 15  1  0  0  0
 13 16  1  0  0  0
 14 39  1  0  0  0
 14 40  1  0  0  0
 14 41  1  0  0  0
 15 42  1  0  0  0
 15 43  1  0  0  0
 15 44  1  0  0  0
 16 45  1  0  0  0
 16 46  1  0  0  0
 47 48  1  0  0  0
 47 49  1  0  0  0
M  CHG  1  47   1
M  END
> <energy>
29.2817

> <chiral flag>
0

> <version>
0

> <i_ionizer_Ion_state_n>
1

> <i_ionizer_Tot_Q>
1

> <s_ionizer_Ion_centers>
47

> <s_ionizer_Ion_types>
N5

> <s_ionizer_Ion_ctrs_in>
9

> <r_ionizer_Ionization_penalty>
0.000148807

> <r_ionizer_Ionization_penalty_charging>
0.000148807

> <r_ionizer_Ionization_penalty_neutral>
0

$$$$
ZINC001258432293
                    3D
 Structure written by MMmdl.
 49 49  0  0  1  0            999 V2000
   -4.5330   -0.8440   -0.9476 C   0  0  0  0  0  0
   -4.0885   -0.1426    0.3252 C   0  0  0  0  0  0
   -3.0354   -0.9129    1.1251 C   0  0  0  0  0  0
   -1.7429   -1.1855    0.3450 C   0  0  0  0  0  0
   -0.6320   -1.6562    1.2853 C   0  0  0  0  0  0
    0.7426   -2.0204    0.6749 C   0  0  1  0  0  0
    0.7036   -3.1206   -0.4130 C   0  0  0  0  0  0
    0.4799   -2.7017   -1.8571 C   0  0  0  0  0  0
    1.3152    0.1663   -0.4676 C   0  0  2  0  0  0
    2.5479    0.5340   -1.3083 C   0  0  0  0  0  0
    2.4428    1.9734   -1.7730 C   0  0  0  0  0  0
    2.5606    2.8667   -0.6691 O   0  0  0  0  0  0
    1.7628    2.5549    0.4822 C   0  0  0  0  0  0
    0.9949    3.8410    0.8243 C   0  0  0  0  0  0
    2.7196    2.2391    1.6384 C   0  0  0  0  0  0
    0.7542    1.4089    0.2521 C   0  0  0  0  0  0
   -5.3494   -0.2853   -1.4172 H   0  0  0  0  0  0
   -4.8881   -1.8577   -0.7405 H   0  0  0  0  0  0
   -3.7174   -0.9038   -1.6740 H   0  0  0  0  0  0
   -3.7002    0.8516    0.0735 H   0  0  0  0  0  0
   -4.9648    0.0160    0.9655 H   0  0  0  0  0  0
   -3.4589   -1.8653    1.4665 H   0  0  0  0  0  0
   -2.8056   -0.3317    2.0267 H   0  0  0  0  0  0
   -1.9461   -1.9586   -0.4030 H   0  0  0  0  0  0
   -1.4439   -0.2783   -0.1832 H   0  0  0  0  0  0
   -0.4750   -0.9079    2.0732 H   0  0  0  0  0  0
   -1.0007   -2.5477    1.8116 H   0  0  0  0  0  0
    1.2272   -2.5489    1.5118 H   0  0  0  0  0  0
   -0.0652   -3.8551   -0.1427 H   0  0  0  0  0  0
    1.6567   -3.6669   -0.3794 H   0  0  0  0  0  0
    1.3228   -2.1195   -2.2387 H   0  0  0  0  0  0
    0.4021   -3.5926   -2.4905 H   0  0  0  0  0  0
   -0.4357   -2.1223   -1.9940 H   0  0  0  0  0  0
    0.5470   -0.1701   -1.1701 H   0  0  0  0  0  0
    3.4674    0.4238   -0.7184 H   0  0  0  0  0  0
    2.6374   -0.1414   -2.1668 H   0  0  0  0  0  0
    1.5006    2.1675   -2.2992 H   0  0  0  0  0  0
    3.2550    2.2052   -2.4696 H   0  0  0  0  0  0
    1.6811    4.6825    0.9733 H   0  0  0  0  0  0
    0.3853    3.7228    1.7258 H   0  0  0  0  0  0
    0.3373    4.1290   -0.0043 H   0  0  0  0  0  0
    3.4001    3.0786    1.8216 H   0  0  0  0  0  0
    2.1750    2.0308    2.5651 H   0  0  0  0  0  0
    3.3588    1.3806    1.4142 H   0  0  0  0  0  0
   -0.0498    1.7958   -0.3904 H   0  0  0  0  0  0
    0.2582    1.1419    1.1926 H   0  0  0  0  0  0
    1.7555   -0.9276    0.4582 N   0  3  0  0  0  0
    1.9707   -0.5067    1.3696 H   0  0  0  0  0  0
    2.6050   -1.3526    0.0684 H   0  0  0  0  0  0
  1  2  1  0  0  0
  1 17  1  0  0  0
  1 18  1  0  0  0
  1 19  1  0  0  0
  2  3  1  0  0  0
  2 20  1  0  0  0
  2 21  1  0  0  0
  3  4  1  0  0  0
  3 22  1  0  0  0
  3 23  1  0  0  0
  4  5  1  0  0  0
  4 24  1  0  0  0
  4 25  1  0  0  0
  5  6  1  0  0  0
  5 26  1  0  0  0
  5 27  1  0  0  0
  6  7  1  0  0  0
  6 28  1  0  0  0
  6 47  1  0  0  0
  7  8  1  0  0  0
  7 29  1  0  0  0
  7 30  1  0  0  0
  8 31  1  0  0  0
  8 32  1  0  0  0
  8 33  1  0  0  0
  9 10  1  0  0  0
  9 16  1  0  0  0
  9 34  1  0  0  0
  9 47  1  0  0  0
 10 11  1  0  0  0
 10 35  1  0  0  0
 10 36  1  0  0  0
 11 12  1  0  0  0
 11 37  1  0  0  0
 11 38  1  0  0  0
 12 13  1  0  0  0
 13 14  1  0  0  0
 13 15  1  0  0  0
 13 16  1  0  0  0
 14 39  1  0  0  0
 14 40  1  0  0  0
 14 41  1  0  0  0
 15 42  1  0  0  0
 15 43  1  0  0  0
 15 44  1  0  0  0
 16 45  1  0  0  0
 16 46  1  0  0  0
 47 48  1  0  0  0
 47 49  1  0  0  0
M  CHG  1  47   1
M  END
> <energy>
33.8957

> <chiral flag>
0

> <version>
0

> <i_ionizer_Ion_state_n>
1

> <i_ionizer_Tot_Q>
1

> <s_ionizer_Ion_centers>
47

> <s_ionizer_Ion_types>
N5

> <s_ionizer_Ion_ctrs_in>
9

> <r_ionizer_Ionization_penalty>
0.000148807

> <r_ionizer_Ionization_penalty_charging>
0.000148807

> <r_ionizer_Ionization_penalty_neutral>
0

$$$$
ZINC001258432382
                    3D
 Structure written by MMmdl.
 49 49  0  0  1  0            999 V2000
    0.1605   -2.5291    3.8363 C   0  0  0  0  0  0
   -0.9606   -1.6459    3.3139 C   0  0  0  0  0  0
   -1.2533   -1.9263    1.8411 C   0  0  0  0  0  0
   -2.4276   -1.1190    1.2878 C   0  0  0  0  0  0
   -2.3180    0.4077    1.3839 C   0  0  0  0  0  0
   -1.0893    1.0731    0.7086 C   0  0  2  0  0  0
   -1.1153    2.5953    1.0064 C   0  0  0  0  0  0
   -2.2478    3.3736    0.3432 C   0  0  0  0  0  0
    0.0591    1.2410   -1.5048 C   0  0  0  0  0  0
    1.2687    0.2737   -1.6963 C   0  0  0  0  0  0
    1.9652    0.0048   -0.3464 C   0  0  0  0  0  0
    0.7972   -1.0511   -2.3379 C   0  0  0  0  0  0
    1.9653   -1.9099   -2.8113 C   0  0  0  0  0  0
    2.7804   -1.1905   -3.7345 O   0  0  0  0  0  0
    3.3584   -0.0248   -3.1566 C   0  0  0  0  0  0
    2.2795    0.9403   -2.6716 C   0  0  0  0  0  0
    1.0824   -2.3690    3.2697 H   0  0  0  0  0  0
   -0.1068   -3.5882    3.7674 H   0  0  0  0  0  0
    0.3635   -2.2995    4.8864 H   0  0  0  0  0  0
   -0.6774   -0.5984    3.4554 H   0  0  0  0  0  0
   -1.8650   -1.8246    3.9062 H   0  0  0  0  0  0
   -1.5005   -2.9905    1.7209 H   0  0  0  0  0  0
   -0.3571   -1.7544    1.2378 H   0  0  0  0  0  0
   -2.5864   -1.4048    0.2417 H   0  0  0  0  0  0
   -3.3377   -1.4191    1.8251 H   0  0  0  0  0  0
   -3.2384    0.8127    0.9452 H   0  0  0  0  0  0
   -2.3492    0.7007    2.4411 H   0  0  0  0  0  0
   -0.1947    0.6696    1.1935 H   0  0  0  0  0  0
   -1.1873    2.7390    2.0928 H   0  0  0  0  0  0
   -0.1629    3.0537    0.7189 H   0  0  0  0  0  0
   -3.2301    2.9552    0.5774 H   0  0  0  0  0  0
   -2.1341    3.3958   -0.7447 H   0  0  0  0  0  0
   -2.2447    4.4089    0.6979 H   0  0  0  0  0  0
   -0.3425    1.4598   -2.5044 H   0  0  0  0  0  0
    0.4139    2.2095   -1.1349 H   0  0  0  0  0  0
    2.9302   -0.4965   -0.4635 H   0  0  0  0  0  0
    2.1528    0.9393    0.1942 H   0  0  0  0  0  0
    1.3602   -0.6435    0.2918 H   0  0  0  0  0  0
    0.1728   -0.8164   -3.2121 H   0  0  0  0  0  0
    0.1743   -1.6259   -1.6424 H   0  0  0  0  0  0
    2.5789   -2.2644   -1.9748 H   0  0  0  0  0  0
    1.5843   -2.7959   -3.3315 H   0  0  0  0  0  0
    3.9597    0.4598   -3.9317 H   0  0  0  0  0  0
    4.0459   -0.3166   -2.3554 H   0  0  0  0  0  0
    1.7338    1.2973   -3.5562 H   0  0  0  0  0  0
    2.7459    1.8192   -2.2102 H   0  0  0  0  0  0
   -1.1041    0.6966   -0.7403 N   0  3  0  0  0  0
   -1.0899   -0.3276   -0.8110 H   0  0  0  0  0  0
   -1.9683    1.0568   -1.1618 H   0  0  0  0  0  0
  1  2  1  0  0  0
  1 17  1  0  0  0
  1 18  1  0  0  0
  1 19  1  0  0  0
  2  3  1  0  0  0
  2 20  1  0  0  0
  2 21  1  0  0  0
  3  4  1  0  0  0
  3 22  1  0  0  0
  3 23  1  0  0  0
  4  5  1  0  0  0
  4 24  1  0  0  0
  4 25  1  0  0  0
  5  6  1  0  0  0
  5 26  1  0  0  0
  5 27  1  0  0  0
  6  7  1  0  0  0
  6 28  1  0  0  0
  6 47  1  0  0  0
  7  8  1  0  0  0
  7 29  1  0  0  0
  7 30  1  0  0  0
  8 31  1  0  0  0
  8 32  1  0  0  0
  8 33  1  0  0  0
  9 10  1  0  0  0
  9 34  1  0  0  0
  9 35  1  0  0  0
  9 47  1  0  0  0
 10 11  1  0  0  0
 10 12  1  0  0  0
 10 16  1  0  0  0
 11 36  1  0  0  0
 11 37  1  0  0  0
 11 38  1  0  0  0
 12 13  1  0  0  0
 12 39  1  0  0  0
 12 40  1  0  0  0
 13 14  1  0  0  0
 13 41  1  0  0  0
 13 42  1  0  0  0
 14 15  1  0  0  0
 15 16  1  0  0  0
 15 43  1  0  0  0
 15 44  1  0  0  0
 16 45  1  0  0  0
 16 46  1  0  0  0
 47 48  1  0  0  0
 47 49  1  0  0  0
M  CHG  1  47   1
M  END
> <energy>
21.7076

> <chiral flag>
0

> <version>
0

> <i_ionizer_Ion_state_n>
1

> <i_ionizer_Tot_Q>
1

> <s_ionizer_Ion_centers>
47

> <s_ionizer_Ion_types>
N5

> <s_ionizer_Ion_ctrs_in>
9

> <r_ionizer_Ionization_penalty>
0.000148807

> <r_ionizer_Ionization_penalty_charging>
0.000148807

> <r_ionizer_Ionization_penalty_neutral>
0

$$$$
ZINC001258432383
                    3D
 Structure written by MMmdl.
 49 49  0  0  1  0            999 V2000
   -1.3025   -3.7145   -2.8742 C   0  0  0  0  0  0
   -1.7544   -2.2853   -3.1336 C   0  0  0  0  0  0
   -1.5994   -1.4324   -1.8750 C   0  0  0  0  0  0
   -2.2608   -0.0602   -2.0233 C   0  0  0  0  0  0
   -2.2692    0.7398   -0.7113 C   0  0  0  0  0  0
   -0.9366    1.4550   -0.3798 C   0  0  1  0  0  0
   -1.0849    2.9964   -0.4616 C   0  0  0  0  0  0
   -1.2026    3.5040   -1.8951 C   0  0  0  0  0  0
    0.3392   -0.0642    1.0655 C   0  0  0  0  0  0
    1.8006    0.2354    1.5290 C   0  0  0  0  0  0
    2.4365    1.2984    0.6079 C   0  0  0  0  0  0
    1.8412    0.7212    2.9974 C   0  0  0  0  0  0
    1.5016   -0.3935    3.9847 C   0  0  0  0  0  0
    2.3638   -1.5156    3.8006 O   0  0  0  0  0  0
    2.2609   -2.0828    2.4951 C   0  0  0  0  0  0
    2.6503   -1.0568    1.4382 C   0  0  0  0  0  0
   -1.4104   -4.3234   -3.7782 H   0  0  0  0  0  0
   -1.9142   -4.1668   -2.0857 H   0  0  0  0  0  0
   -0.2532   -3.7418   -2.5596 H   0  0  0  0  0  0
   -1.1649   -1.8530   -3.9518 H   0  0  0  0  0  0
   -2.8009   -2.3009   -3.4606 H   0  0  0  0  0  0
   -0.5318   -1.3156   -1.6638 H   0  0  0  0  0  0
   -2.0421   -1.9560   -1.0192 H   0  0  0  0  0  0
   -1.7785    0.5095   -2.8258 H   0  0  0  0  0  0
   -3.3056   -0.2157   -2.3287 H   0  0  0  0  0  0
   -3.0841    1.4703   -0.7663 H   0  0  0  0  0  0
   -2.5646    0.0633    0.0986 H   0  0  0  0  0  0
   -0.1470    1.1688   -1.0865 H   0  0  0  0  0  0
   -0.2036    3.4809   -0.0207 H   0  0  0  0  0  0
   -1.9526    3.3421    0.1173 H   0  0  0  0  0  0
   -0.3281    3.2061   -2.4819 H   0  0  0  0  0  0
   -1.2586    4.5975   -1.9005 H   0  0  0  0  0  0
   -2.1019    3.1255   -2.3869 H   0  0  0  0  0  0
   -0.1427   -0.7739    1.7453 H   0  0  0  0  0  0
    0.3860   -0.5809    0.1025 H   0  0  0  0  0  0
    2.3700    0.9976   -0.4435 H   0  0  0  0  0  0
    3.4983    1.4443    0.8387 H   0  0  0  0  0  0
    1.9554    2.2754    0.7094 H   0  0  0  0  0  0
    1.1766    1.5751    3.1655 H   0  0  0  0  0  0
    2.8597    1.0687    3.2208 H   0  0  0  0  0  0
    0.4582   -0.7196    3.9029 H   0  0  0  0  0  0
    1.6463   -0.0368    5.0098 H   0  0  0  0  0  0
    2.9460   -2.9349    2.4502 H   0  0  0  0  0  0
    1.2487   -2.4736    2.3437 H   0  0  0  0  0  0
    3.7042   -0.7934    1.6008 H   0  0  0  0  0  0
    2.5835   -1.4990    0.4387 H   0  0  0  0  0  0
   -0.5466    1.1228    1.0199 N   0  3  0  0  0  0
   -0.0523    1.9247    1.4286 H   0  0  0  0  0  0
   -1.3941    0.9287    1.5661 H   0  0  0  0  0  0
  1  2  1  0  0  0
  1 17  1  0  0  0
  1 18  1  0  0  0
  1 19  1  0  0  0
  2  3  1  0  0  0
  2 20  1  0  0  0
  2 21  1  0  0  0
  3  4  1  0  0  0
  3 22  1  0  0  0
  3 23  1  0  0  0
  4  5  1  0  0  0
  4 24  1  0  0  0
  4 25  1  0  0  0
  5  6  1  0  0  0
  5 26  1  0  0  0
  5 27  1  0  0  0
  6  7  1  0  0  0
  6 28  1  0  0  0
  6 47  1  0  0  0
  7  8  1  0  0  0
  7 29  1  0  0  0
  7 30  1  0  0  0
  8 31  1  0  0  0
  8 32  1  0  0  0
  8 33  1  0  0  0
  9 10  1  0  0  0
  9 34  1  0  0  0
  9 35  1  0  0  0
  9 47  1  0  0  0
 10 11  1  0  0  0
 10 12  1  0  0  0
 10 16  1  0  0  0
 11 36  1  0  0  0
 11 37  1  0  0  0
 11 38  1  0  0  0
 12 13  1  0  0  0
 12 39  1  0  0  0
 12 40  1  0  0  0
 13 14  1  0  0  0
 13 41  1  0  0  0
 13 42  1  0  0  0
 14 15  1  0  0  0
 15 16  1  0  0  0
 15 43  1  0  0  0
 15 44  1  0  0  0
 16 45  1  0  0  0
 16 46  1  0  0  0
 47 48  1  0  0  0
 47 49  1  0  0  0
M  CHG  1  47   1
M  END
> <energy>
26.146

> <chiral flag>
0

> <version>
0

> <i_ionizer_Ion_state_n>
1

> <i_ionizer_Tot_Q>
1

> <s_ionizer_Ion_centers>
47

> <s_ionizer_Ion_types>
N5

> <s_ionizer_Ion_ctrs_in>
9

> <r_ionizer_Ionization_penalty>
0.000148807

> <r_ionizer_Ionization_penalty_charging>
0.000148807

> <r_ionizer_Ionization_penalty_neutral>
0

$$$$
ZINC001258432485
                    3D
 Structure written by MMmdl.
 39 39  0  0  1  0            999 V2000
   -3.9541   -0.6593    1.3024 C   0  0  0  0  0  0
   -3.8934    0.8111    0.9062 C   0  0  0  0  0  0
   -2.5097    1.2235    0.4009 C   0  0  0  0  0  0
   -2.2269    0.7222   -1.0239 C   0  0  0  0  0  0
   -0.7276    0.7453   -1.3573 C   0  0  0  0  0  0
    0.0389   -0.4473   -0.7290 C   0  0  1  0  0  0
   -0.1143   -1.7042   -1.6144 C   0  0  0  0  0  0
    0.4555   -2.9701   -0.9807 C   0  0  0  0  0  0
    1.7443    0.5989    0.6486 C   0  0  0  0  0  0
    3.2084    0.8504    0.7472 C   0  0  0  0  0  0
    4.1856    0.0410    1.3954 C   0  0  0  0  0  0
    5.3812    0.7096    1.2938 C   0  0  0  0  0  0
    5.2180    1.8670    0.6060 O   0  0  0  0  0  0
    3.9043    1.9450    0.2738 C   0  0  0  0  0  0
   -3.7742   -1.3178    0.4465 H   0  0  0  0  0  0
   -3.2103   -0.8933    2.0729 H   0  0  0  0  0  0
   -4.9446   -0.8990    1.7032 H   0  0  0  0  0  0
   -4.6545    1.0187    0.1453 H   0  0  0  0  0  0
   -4.1430    1.4150    1.7864 H   0  0  0  0  0  0
   -1.7476    0.8750    1.1067 H   0  0  0  0  0  0
   -2.4466    2.3195    0.3998 H   0  0  0  0  0  0
   -2.6321   -0.2826   -1.1796 H   0  0  0  0  0  0
   -2.7538    1.3808   -1.7268 H   0  0  0  0  0  0
   -0.3131    1.7064   -1.0291 H   0  0  0  0  0  0
   -0.6072    0.7210   -2.4488 H   0  0  0  0  0  0
   -0.3849   -0.6937    0.2522 H   0  0  0  0  0  0
   -1.1757   -1.8868   -1.8199 H   0  0  0  0  0  0
    0.3649   -1.5470   -2.5896 H   0  0  0  0  0  0
    1.5358   -2.8992   -0.8234 H   0  0  0  0  0  0
   -0.0223   -3.1691   -0.0155 H   0  0  0  0  0  0
    0.2628   -3.8286   -1.6319 H   0  0  0  0  0  0
    1.2071    1.5536    0.6725 H   0  0  0  0  0  0
    1.4236    0.0183    1.5205 H   0  0  0  0  0  0
    4.0296   -0.9099    1.8850 H   0  0  0  0  0  0
    6.3843    0.5089    1.6410 H   0  0  0  0  0  0
    3.6178    2.8308   -0.2755 H   0  0  0  0  0  0
    1.4832   -0.1491   -0.5902 N   0  3  0  0  0  0
    2.0086   -1.0309   -0.5682 H   0  0  0  0  0  0
    1.7900    0.4122   -1.3934 H   0  0  0  0  0  0
  1  2  1  0  0  0
  1 15  1  0  0  0
  1 16  1  0  0  0
  1 17  1  0  0  0
  2  3  1  0  0  0
  2 18  1  0  0  0
  2 19  1  0  0  0
  3  4  1  0  0  0
  3 20  1  0  0  0
  3 21  1  0  0  0
  4  5  1  0  0  0
  4 22  1  0  0  0
  4 23  1  0  0  0
  5  6  1  0  0  0
  5 24  1  0  0  0
  5 25  1  0  0  0
  6  7  1  0  0  0
  6 26  1  0  0  0
  6 37  1  0  0  0
  7  8  1  0  0  0
  7 27  1  0  0  0
  7 28  1  0  0  0
  8 29  1  0  0  0
  8 30  1  0  0  0
  8 31  1  0  0  0
  9 10  1  0  0  0
  9 32  1  0  0  0
  9 33  1  0  0  0
  9 37  1  0  0  0
 10 11  1  0  0  0
 10 14  2  0  0  0
 11 12  2  0  0  0
 11 34  1  0  0  0
 12 13  1  0  0  0
 12 35  1  0  0  0
 13 14  1  0  0  0
 14 36  1  0  0  0
 37 38  1  0  0  0
 37 39  1  0  0  0
M  CHG  1  37   1
M  END
> <energy>
-1.08484

> <chiral flag>
0

> <version>
0

> <i_ionizer_Ion_state_n>
1

> <i_ionizer_Tot_Q>
1

> <s_ionizer_Ion_centers>
37

> <s_ionizer_Ion_types>
N5

> <s_ionizer_Ion_ctrs_in>
9

> <r_ionizer_Ionization_penalty>
0.000148807

> <r_ionizer_Ionization_penalty_charging>
0.000148807

> <r_ionizer_Ionization_penalty_neutral>
0

$$$$
ZINC001258432486
                    3D
 Structure written by MMmdl.
 39 39  0  0  1  0            999 V2000
   -3.2972    2.1168    0.6535 C   0  0  0  0  0  0
   -3.6795    0.8220    1.3589 C   0  0  0  0  0  0
   -2.7616   -0.3404    0.9696 C   0  0  0  0  0  0
   -1.4906   -0.4094    1.8259 C   0  0  0  0  0  0
   -0.5033   -1.4550    1.2881 C   0  0  0  0  0  0
    0.4744   -0.8892    0.2277 C   0  0  2  0  0  0
    1.0504   -2.0215   -0.6489 C   0  0  0  0  0  0
    0.0595   -2.5510   -1.6778 C   0  0  0  0  0  0
    1.8307    1.1501    0.5784 C   0  0  0  0  0  0
    2.5131    1.2621   -0.7407 C   0  0  0  0  0  0
    3.8588    0.9213   -1.0689 C   0  0  0  0  0  0
    4.0451    1.2646   -2.3863 C   0  0  0  0  0  0
    2.9105    1.8015   -2.8980 O   0  0  0  0  0  0
    1.9891    1.8020   -1.9020 C   0  0  0  0  0  0
   -3.3425    1.9916   -0.4344 H   0  0  0  0  0  0
   -2.2885    2.4364    0.9306 H   0  0  0  0  0  0
   -3.9936    2.9177    0.9259 H   0  0  0  0  0  0
   -4.7088    0.5687    1.0796 H   0  0  0  0  0  0
   -3.6713    0.9744    2.4440 H   0  0  0  0  0  0
   -3.3145   -1.2814    1.0995 H   0  0  0  0  0  0
   -2.5103   -0.2719   -0.0939 H   0  0  0  0  0  0
   -1.0180    0.5767    1.9051 H   0  0  0  0  0  0
   -1.7823   -0.6968    2.8429 H   0  0  0  0  0  0
   -1.0626   -2.3126    0.8993 H   0  0  0  0  0  0
    0.0764   -1.8515    2.1317 H   0  0  0  0  0  0
   -0.0602   -0.1800   -0.4176 H   0  0  0  0  0  0
    1.3857   -2.8489   -0.0142 H   0  0  0  0  0  0
    1.9316   -1.6645   -1.1953 H   0  0  0  0  0  0
    0.5318   -3.3363   -2.2755 H   0  0  0  0  0  0
   -0.2606   -1.7558   -2.3596 H   0  0  0  0  0  0
   -0.8269   -2.9815   -1.2063 H   0  0  0  0  0  0
    2.4924    1.5858    1.3356 H   0  0  0  0  0  0
    0.9101    1.7413    0.6002 H   0  0  0  0  0  0
    4.5988    0.4849   -0.4142 H   0  0  0  0  0  0
    4.8804    1.2088   -3.0678 H   0  0  0  0  0  0
    1.0315    2.2315   -2.1542 H   0  0  0  0  0  0
    1.5933   -0.2514    0.9878 N   0  3  0  0  0  0
    1.3629   -0.2674    1.9883 H   0  0  0  0  0  0
    2.4514   -0.7914    0.8256 H   0  0  0  0  0  0
  1  2  1  0  0  0
  1 15  1  0  0  0
  1 16  1  0  0  0
  1 17  1  0  0  0
  2  3  1  0  0  0
  2 18  1  0  0  0
  2 19  1  0  0  0
  3  4  1  0  0  0
  3 20  1  0  0  0
  3 21  1  0  0  0
  4  5  1  0  0  0
  4 22  1  0  0  0
  4 23  1  0  0  0
  5  6  1  0  0  0
  5 24  1  0  0  0
  5 25  1  0  0  0
  6  7  1  0  0  0
  6 26  1  0  0  0
  6 37  1  0  0  0
  7  8  1  0  0  0
  7 27  1  0  0  0
  7 28  1  0  0  0
  8 29  1  0  0  0
  8 30  1  0  0  0
  8 31  1  0  0  0
  9 10  1  0  0  0
  9 32  1  0  0  0
  9 33  1  0  0  0
  9 37  1  0  0  0
 10 11  1  0  0  0
 10 14  2  0  0  0
 11 12  2  0  0  0
 11 34  1  0  0  0
 12 13  1  0  0  0
 12 35  1  0  0  0
 13 14  1  0  0  0
 14 36  1  0  0  0
 37 38  1  0  0  0
 37 39  1  0  0  0
M  CHG  1  37   1
M  END
> <energy>
2.05953

> <chiral flag>
0

> <version>
0

> <i_ionizer_Ion_state_n>
1

> <i_ionizer_Tot_Q>
1

> <s_ionizer_Ion_centers>
37

> <s_ionizer_Ion_types>
N5

> <s_ionizer_Ion_ctrs_in>
9

> <r_ionizer_Ionization_penalty>
0.000148807

> <r_ionizer_Ionization_penalty_charging>
0.000148807

> <r_ionizer_Ionization_penalty_neutral>
0

$$$$
ZINC001258432550
                    3D
 Structure written by MMmdl.
 53 52  0  0  1  0            999 V2000
   -3.3450    2.6083   -2.2367 C   0  0  0  0  0  0
   -4.1560    2.0409   -1.0824 C   0  0  0  0  0  0
   -3.3030    1.3683   -0.0048 C   0  0  0  0  0  0
   -2.5822    0.1082   -0.4979 C   0  0  0  0  0  0
   -1.9105   -0.6293    0.6673 C   0  0  0  0  0  0
   -1.1084   -1.8768    0.2242 C   0  0  2  0  0  0
   -1.4234   -3.0793    1.1478 C   0  0  0  0  0  0
   -0.9868   -2.9138    2.6007 C   0  0  0  0  0  0
    0.8211   -0.7485   -0.8273 C   0  0  0  0  0  0
    2.3662   -0.5293   -0.8239 C   0  0  0  0  0  0
    3.1150   -1.8722   -0.9858 C   0  0  0  0  0  0
    2.7298    0.3423   -2.0454 C   0  0  0  0  0  0
    2.8481    0.1481    0.4955 C   0  0  0  0  0  0
    3.2489    2.5497    0.5478 C   0  0  0  0  0  0
    1.6619    1.5717    2.0565 C   0  0  0  0  0  0
   -4.0039    3.1345   -2.9357 H   0  0  0  0  0  0
   -2.8348    1.8194   -2.7954 H   0  0  0  0  0  0
   -2.5947    3.3190   -1.8767 H   0  0  0  0  0  0
   -4.8940    1.3290   -1.4704 H   0  0  0  0  0  0
   -4.7219    2.8583   -0.6190 H   0  0  0  0  0  0
   -3.9603    1.1056    0.8344 H   0  0  0  0  0  0
   -2.5689    2.0845    0.3829 H   0  0  0  0  0  0
   -1.8432    0.3743   -1.2591 H   0  0  0  0  0  0
   -3.3090   -0.5624   -0.9730 H   0  0  0  0  0  0
   -1.2647    0.0629    1.2202 H   0  0  0  0  0  0
   -2.7050   -0.9231    1.3646 H   0  0  0  0  0  0
   -1.4229   -2.1790   -0.7829 H   0  0  0  0  0  0
   -2.5044   -3.2681    1.1268 H   0  0  0  0  0  0
   -0.9507   -3.9839    0.7447 H   0  0  0  0  0  0
   -1.3023   -3.7854    3.1851 H   0  0  0  0  0  0
   -1.4362   -2.0294    3.0618 H   0  0  0  0  0  0
    0.1017   -2.8313    2.6887 H   0  0  0  0  0  0
    0.3362    0.2256   -0.7175 H   0  0  0  0  0  0
    0.5229   -1.1459   -1.8055 H   0  0  0  0  0  0
    2.7467   -2.4275   -1.8560 H   0  0  0  0  0  0
    4.1900   -1.7088   -1.1309 H   0  0  0  0  0  0
    3.0045   -2.5132   -0.1048 H   0  0  0  0  0  0
    2.4936   -0.1759   -2.9830 H   0  0  0  0  0  0
    3.8014    0.5761   -2.0602 H   0  0  0  0  0  0
    2.1757    1.2875   -2.0492 H   0  0  0  0  0  0
    3.9456    0.2087    0.4937 H   0  0  0  0  0  0
    2.6142   -0.5245    1.3325 H   0  0  0  0  0  0
    4.0787    2.4639    1.2581 H   0  0  0  0  0  0
    2.7824    3.5316    0.6817 H   0  0  0  0  0  0
    3.6617    2.5383   -0.4660 H   0  0  0  0  0  0
    2.4051    1.4393    2.8508 H   0  0  0  0  0  0
    0.8826    0.8120    2.1811 H   0  0  0  0  0  0
    1.1748    2.5432    2.1959 H   0  0  0  0  0  0
    0.3710   -1.6788    0.2414 N   0  3  0  0  0  0
    0.6432   -1.2928    1.1531 H   0  0  0  0  0  0
    0.8287   -2.5876    0.1041 H   0  0  0  0  0  0
    2.2382    1.4917    0.7096 N   0  3  0  0  0  0
    1.4936    1.6325    0.0168 H   0  0  0  0  0  0
  1  2  1  0  0  0
  1 16  1  0  0  0
  1 17  1  0  0  0
  1 18  1  0  0  0
  2  3  1  0  0  0
  2 19  1  0  0  0
  2 20  1  0  0  0
  3  4  1  0  0  0
  3 21  1  0  0  0
  3 22  1  0  0  0
  4  5  1  0  0  0
  4 23  1  0  0  0
  4 24  1  0  0  0
  5  6  1  0  0  0
  5 25  1  0  0  0
  5 26  1  0  0  0
  6  7  1  0  0  0
  6 27  1  0  0  0
  6 49  1  0  0  0
  7  8  1  0  0  0
  7 28  1  0  0  0
  7 29  1  0  0  0
  8 30  1  0  0  0
  8 31  1  0  0  0
  8 32  1  0  0  0
  9 10  1  0  0  0
  9 33  1  0  0  0
  9 34  1  0  0  0
  9 49  1  0  0  0
 10 11  1  0  0  0
 10 12  1  0  0  0
 10 13  1  0  0  0
 11 35  1  0  0  0
 11 36  1  0  0  0
 11 37  1  0  0  0
 12 38  1  0  0  0
 12 39  1  0  0  0
 12 40  1  0  0  0
 13 41  1  0  0  0
 13 42  1  0  0  0
 13 52  1  0  0  0
 14 43  1  0  0  0
 14 44  1  0  0  0
 14 45  1  0  0  0
 14 52  1  0  0  0
 15 46  1  0  0  0
 15 47  1  0  0  0
 15 48  1  0  0  0
 15 52  1  0  0  0
 49 50  1  0  0  0
 49 51  1  0  0  0
 52 53  1  0  0  0
M  CHG  2  49   1  52   1
M  END
> <energy>
29.0765

> <chiral flag>
0

> <version>
0

> <i_ionizer_Ion_state_n>
3

> <i_ionizer_Tot_Q>
2

> <s_ionizer_Ion_centers>
49_52

> <s_ionizer_Ion_types>
N5_N5

> <s_ionizer_Ion_ctrs_in>
9_15

> <r_ionizer_Ionization_penalty>
0.0016352

> <r_ionizer_Ionization_penalty_charging>
0.0016352

> <r_ionizer_Ionization_penalty_neutral>
0

$$$$
ZINC001258432551
                    3D
 Structure written by MMmdl.
 53 52  0  0  1  0            999 V2000
   -0.1150    0.4079   -4.7993 C   0  0  0  0  0  0
   -0.4236   -0.7964   -3.9175 C   0  0  0  0  0  0
   -1.4800   -0.4509   -2.8640 C   0  0  0  0  0  0
   -1.6801   -1.5701   -1.8325 C   0  0  0  0  0  0
   -1.8999   -1.0208   -0.4078 C   0  0  0  0  0  0
   -0.8560   -1.4566    0.6488 C   0  0  1  0  0  0
   -1.0877   -2.9295    1.0614 C   0  0  0  0  0  0
   -0.3500   -3.3209    2.3393 C   0  0  0  0  0  0
    0.9558    0.0515   -0.1604 C   0  0  0  0  0  0
    1.7662    0.8412    0.8979 C   0  0  0  0  0  0
    2.5080    1.9935    0.1847 C   0  0  0  0  0  0
    2.8662   -0.0662    1.5026 C   0  0  0  0  0  0
    0.8644    1.3540    2.0688 C   0  0  0  0  0  0
   -1.2948    2.0513    2.8856 C   0  0  0  0  0  0
   -0.1854    3.4377    1.2954 C   0  0  0  0  0  0
    0.2459    1.2488   -4.1973 H   0  0  0  0  0  0
   -1.0106    0.7328   -5.3393 H   0  0  0  0  0  0
    0.6577    0.1633   -5.5335 H   0  0  0  0  0  0
    0.5005   -1.1149   -3.4205 H   0  0  0  0  0  0
   -0.7652   -1.6301   -4.5372 H   0  0  0  0  0  0
   -1.1786    0.4821   -2.3789 H   0  0  0  0  0  0
   -2.4370   -0.2423   -3.3611 H   0  0  0  0  0  0
   -0.8518   -2.2832   -1.8656 H   0  0  0  0  0  0
   -2.5653   -2.1470   -2.1244 H   0  0  0  0  0  0
   -1.9576    0.0746   -0.4228 H   0  0  0  0  0  0
   -2.8918   -1.3463   -0.0672 H   0  0  0  0  0  0
   -1.0399   -0.8484    1.5403 H   0  0  0  0  0  0
   -2.1583   -3.0903    1.2307 H   0  0  0  0  0  0
   -0.7904   -3.6133    0.2564 H   0  0  0  0  0  0
   -0.5046   -2.5745    3.1261 H   0  0  0  0  0  0
   -0.7314   -4.2764    2.7145 H   0  0  0  0  0  0
    0.7238   -3.4285    2.1718 H   0  0  0  0  0  0
    0.1150    0.6583   -0.5071 H   0  0  0  0  0  0
    1.5935   -0.0763   -1.0477 H   0  0  0  0  0  0
    3.3110    1.6000   -0.4521 H   0  0  0  0  0  0
    2.9692    2.6782    0.9066 H   0  0  0  0  0  0
    1.8594    2.5673   -0.4789 H   0  0  0  0  0  0
    2.4431   -0.8870    2.0915 H   0  0  0  0  0  0
    3.4786   -0.5131    0.7116 H   0  0  0  0  0  0
    3.5294    0.5025    2.1648 H   0  0  0  0  0  0
    1.4663    1.9734    2.7483 H   0  0  0  0  0  0
    0.5935    0.4655    2.6545 H   0  0  0  0  0  0
   -2.2552    2.5147    2.6325 H   0  0  0  0  0  0
   -0.8689    2.5838    3.7448 H   0  0  0  0  0  0
   -1.5286    1.0269    3.1954 H   0  0  0  0  0  0
    0.2805    3.4814    0.3104 H   0  0  0  0  0  0
   -1.1449    3.9567    1.1697 H   0  0  0  0  0  0
    0.4212    4.0138    2.0044 H   0  0  0  0  0  0
    0.5789   -1.3336    0.2484 N   0  3  0  0  0  0
    1.1653   -1.6104    1.0445 H   0  0  0  0  0  0
    0.7533   -1.9662   -0.5414 H   0  0  0  0  0  0
   -0.4171    2.0475    1.7185 N   0  3  0  0  0  0
   -0.8712    1.5377    0.9516 H   0  0  0  0  0  0
  1  2  1  0  0  0
  1 16  1  0  0  0
  1 17  1  0  0  0
  1 18  1  0  0  0
  2  3  1  0  0  0
  2 19  1  0  0  0
  2 20  1  0  0  0
  3  4  1  0  0  0
  3 21  1  0  0  0
  3 22  1  0  0  0
  4  5  1  0  0  0
  4 23  1  0  0  0
  4 24  1  0  0  0
  5  6  1  0  0  0
  5 25  1  0  0  0
  5 26  1  0  0  0
  6  7  1  0  0  0
  6 27  1  0  0  0
  6 49  1  0  0  0
  7  8  1  0  0  0
  7 28  1  0  0  0
  7 29  1  0  0  0
  8 30  1  0  0  0
  8 31  1  0  0  0
  8 32  1  0  0  0
  9 10  1  0  0  0
  9 33  1  0  0  0
  9 34  1  0  0  0
  9 49  1  0  0  0
 10 11  1  0  0  0
 10 12  1  0  0  0
 10 13  1  0  0  0
 11 35  1  0  0  0
 11 36  1  0  0  0
 11 37  1  0  0  0
 12 38  1  0  0  0
 12 39  1  0  0  0
 12 40  1  0  0  0
 13 41  1  0  0  0
 13 42  1  0  0  0
 13 52  1  0  0  0
 14 43  1  0  0  0
 14 44  1  0  0  0
 14 45  1  0  0  0
 14 52  1  0  0  0
 15 46  1  0  0  0
 15 47  1  0  0  0
 15 48  1  0  0  0
 15 52  1  0  0  0
 49 50  1  0  0  0
 49 51  1  0  0  0
 52 53  1  0  0  0
M  CHG  2  49   1  52   1
M  END
> <energy>
38.3457

> <chiral flag>
0

> <version>
0

> <i_ionizer_Ion_state_n>
3

> <i_ionizer_Tot_Q>
2

> <s_ionizer_Ion_centers>
49_52

> <s_ionizer_Ion_types>
N5_N5

> <s_ionizer_Ion_ctrs_in>
9_15

> <r_ionizer_Ionization_penalty>
0.0016352

> <r_ionizer_Ionization_penalty_charging>
0.0016352

> <r_ionizer_Ionization_penalty_neutral>
0

$$$$
ZINC001258432747
                    3D
 Structure written by MMmdl.
 46 46  0  0  1  0            999 V2000
   -0.5198   -3.5415    1.3509 C   0  0  0  0  0  0
   -1.6947   -3.5462    0.3821 C   0  0  0  0  0  0
   -2.1800   -2.1369    0.0238 C   0  0  0  0  0  0
   -1.3788   -1.5151   -1.1269 C   0  0  0  0  0  0
   -1.8430   -0.0785   -1.4222 C   0  0  0  0  0  0
   -1.0565    0.9869   -0.6176 C   0  0  2  0  0  0
   -1.7508    2.3608   -0.6483 C   0  0  0  0  0  0
   -3.0691    2.3717    0.1180 C   0  0  0  0  0  0
    1.3309    1.8472   -0.5962 C   0  0  2  0  0  0
    2.6391    1.5553   -1.3480 C   0  0  0  0  0  0
    3.0813    0.1024   -1.1435 C   0  0  0  0  0  0
    2.7128   -0.4332    0.1277 O   0  0  0  0  0  0
    2.6749    0.5421    1.1613 C   0  0  2  0  0  0
    2.4280   -0.1702    2.4831 C   0  0  0  0  0  0
    1.5952    1.6095    0.8983 C   0  0  0  0  0  0
    0.3357   -2.9852    0.9556 H   0  0  0  0  0  0
   -0.1900   -4.5675    1.5493 H   0  0  0  0  0  0
   -0.8100   -3.0895    2.3059 H   0  0  0  0  0  0
   -2.5226   -4.1016    0.8441 H   0  0  0  0  0  0
   -1.4215   -4.0945   -0.5275 H   0  0  0  0  0  0
   -3.2305   -2.2072   -0.2877 H   0  0  0  0  0  0
   -2.1550   -1.4951    0.9129 H   0  0  0  0  0  0
   -1.5330   -2.1253   -2.0265 H   0  0  0  0  0  0
   -0.3056   -1.5446   -0.9101 H   0  0  0  0  0  0
   -1.7257    0.1135   -2.4990 H   0  0  0  0  0  0
   -2.9179   -0.0077   -1.2302 H   0  0  0  0  0  0
   -1.0000    0.6446    0.4222 H   0  0  0  0  0  0
   -1.9183    2.6864   -1.6833 H   0  0  0  0  0  0
   -1.1072    3.1148   -0.1823 H   0  0  0  0  0  0
   -3.8350    1.7644   -0.3683 H   0  0  0  0  0  0
   -3.4592    3.3921    0.1842 H   0  0  0  0  0  0
   -2.9301    1.9901    1.1357 H   0  0  0  0  0  0
    1.0861    2.9044   -0.7454 H   0  0  0  0  0  0
    3.4251    2.2129   -0.9484 H   0  0  0  0  0  0
    2.5700    1.7888   -2.4188 H   0  0  0  0  0  0
    2.6368   -0.5451   -1.9051 H   0  0  0  0  0  0
    4.1680    0.0194   -1.2578 H   0  0  0  0  0  0
    3.6616    1.0228    1.2173 H   0  0  0  0  0  0
    3.2084   -0.9145    2.6709 H   0  0  0  0  0  0
    2.4110    0.5338    3.3177 H   0  0  0  0  0  0
    1.4787   -0.7125    2.4620 H   0  0  0  0  0  0
    0.6751    1.3866    1.4458 H   0  0  0  0  0  0
    1.9529    2.5493    1.3462 H   0  0  0  0  0  0
    0.2969    0.9938   -1.2797 N   0  3  0  0  0  0
    0.6453    0.0282   -1.3038 H   0  0  0  0  0  0
    0.1810    1.3399   -2.2393 H   0  0  0  0  0  0
  1  2  1  0  0  0
  1 16  1  0  0  0
  1 17  1  0  0  0
  1 18  1  0  0  0
  2  3  1  0  0  0
  2 19  1  0  0  0
  2 20  1  0  0  0
  3  4  1  0  0  0
  3 21  1  0  0  0
  3 22  1  0  0  0
  4  5  1  0  0  0
  4 23  1  0  0  0
  4 24  1  0  0  0
  5  6  1  0  0  0
  5 25  1  0  0  0
  5 26  1  0  0  0
  6  7  1  0  0  0
  6 27  1  0  0  0
  6 44  1  0  0  0
  7  8  1  0  0  0
  7 28  1  0  0  0
  7 29  1  0  0  0
  8 30  1  0  0  0
  8 31  1  0  0  0
  8 32  1  0  0  0
  9 10  1  0  0  0
  9 15  1  0  0  0
  9 33  1  0  0  0
  9 44  1  0  0  0
 10 11  1  0  0  0
 10 34  1  0  0  0
 10 35  1  0  0  0
 11 12  1  0  0  0
 11 36  1  0  0  0
 11 37  1  0  0  0
 12 13  1  0  0  0
 13 14  1  0  0  0
 13 15  1  0  0  0
 13 38  1  0  0  0
 14 39  1  0  0  0
 14 40  1  0  0  0
 14 41  1  0  0  0
 15 42  1  0  0  0
 15 43  1  0  0  0
 44 45  1  0  0  0
 44 46  1  0  0  0
M  CHG  1  44   1
M  END
> <energy>
20.9063

> <chiral flag>
0

> <version>
0

> <i_ionizer_Ion_state_n>
1

> <i_ionizer_Tot_Q>
1

> <s_ionizer_Ion_centers>
44

> <s_ionizer_Ion_types>
N5

> <s_ionizer_Ion_ctrs_in>
9

> <r_ionizer_Ionization_penalty>
0.000148807

> <r_ionizer_Ionization_penalty_charging>
0.000148807

> <r_ionizer_Ionization_penalty_neutral>
0

$$$$
ZINC001258432749
                    3D
 Structure written by MMmdl.
 46 46  0  0  1  0            999 V2000
   -4.1224    1.3736    0.2568 C   0  0  0  0  0  0
   -3.6903    0.4556   -0.8767 C   0  0  0  0  0  0
   -2.8439   -0.7025   -0.3427 C   0  0  0  0  0  0
   -2.1924   -1.5003   -1.4777 C   0  0  0  0  0  0
   -1.1283   -2.4991   -0.9891 C   0  0  0  0  0  0
    0.2525   -1.9556   -0.4931 C   0  0  2  0  0  0
    0.6512   -2.6722    0.8223 C   0  0  0  0  0  0
   -0.1359   -2.2226    2.0525 C   0  0  0  0  0  0
    1.5610    0.1307   -0.0252 C   0  0  1  0  0  0
    2.5753    0.1790   -1.1739 C   0  0  0  0  0  0
    3.7733    1.0382   -0.7904 C   0  0  0  0  0  0
    3.3654    2.3426   -0.3802 O   0  0  0  0  0  0
    2.5247    2.3008    0.7759 C   0  0  1  0  0  0
    2.2332    3.7315    1.2059 C   0  0  0  0  0  0
    1.2351    1.5581    0.4403 C   0  0  0  0  0  0
   -3.2506    1.8068    0.7570 H   0  0  0  0  0  0
   -4.7104    0.8239    0.9968 H   0  0  0  0  0  0
   -4.7308    2.1964   -0.1274 H   0  0  0  0  0  0
   -3.1164    1.0372   -1.6083 H   0  0  0  0  0  0
   -4.5746    0.0661   -1.3933 H   0  0  0  0  0  0
   -3.4747   -1.3663    0.2630 H   0  0  0  0  0  0
   -2.0880   -0.2984    0.3345 H   0  0  0  0  0  0
   -1.7652   -0.8313   -2.2331 H   0  0  0  0  0  0
   -2.9839   -2.0634   -1.9888 H   0  0  0  0  0  0
   -0.9136   -3.1721   -1.8318 H   0  0  0  0  0  0
   -1.5892   -3.1357   -0.2249 H   0  0  0  0  0  0
    0.9830   -2.2637   -1.2532 H   0  0  0  0  0  0
    0.5045   -3.7525    0.6907 H   0  0  0  0  0  0
    1.7238   -2.5411    1.0201 H   0  0  0  0  0  0
    0.0630   -1.1736    2.2996 H   0  0  0  0  0  0
   -1.2159   -2.3359    1.9112 H   0  0  0  0  0  0
    0.1481   -2.8329    2.9172 H   0  0  0  0  0  0
    2.0067   -0.3912    0.8286 H   0  0  0  0  0  0
    2.9154   -0.8284   -1.4424 H   0  0  0  0  0  0
    2.1023    0.6216   -2.0605 H   0  0  0  0  0  0
    4.4348    1.1585   -1.6527 H   0  0  0  0  0  0
    4.3608    0.5760    0.0113 H   0  0  0  0  0  0
    3.0626    1.7958    1.5892 H   0  0  0  0  0  0
    1.6458    3.7535    2.1299 H   0  0  0  0  0  0
    3.1672    4.2774    1.3795 H   0  0  0  0  0  0
    1.6881    4.2801    0.4299 H   0  0  0  0  0  0
    0.5693    1.5317    1.3121 H   0  0  0  0  0  0
    0.7054    2.0894   -0.3627 H   0  0  0  0  0  0
    0.2455   -0.4623   -0.4196 N   0  3  0  0  0  0
   -0.0114   -0.0942   -1.3431 H   0  0  0  0  0  0
   -0.4584   -0.1758    0.2709 H   0  0  0  0  0  0
  1  2  1  0  0  0
  1 16  1  0  0  0
  1 17  1  0  0  0
  1 18  1  0  0  0
  2  3  1  0  0  0
  2 19  1  0  0  0
  2 20  1  0  0  0
  3  4  1  0  0  0
  3 21  1  0  0  0
  3 22  1  0  0  0
  4  5  1  0  0  0
  4 23  1  0  0  0
  4 24  1  0  0  0
  5  6  1  0  0  0
  5 25  1  0  0  0
  5 26  1  0  0  0
  6  7  1  0  0  0
  6 27  1  0  0  0
  6 44  1  0  0  0
  7  8  1  0  0  0
  7 28  1  0  0  0
  7 29  1  0  0  0
  8 30  1  0  0  0
  8 31  1  0  0  0
  8 32  1  0  0  0
  9 10  1  0  0  0
  9 15  1  0  0  0
  9 33  1  0  0  0
  9 44  1  0  0  0
 10 11  1  0  0  0
 10 34  1  0  0  0
 10 35  1  0  0  0
 11 12  1  0  0  0
 11 36  1  0  0  0
 11 37  1  0  0  0
 12 13  1  0  0  0
 13 14  1  0  0  0
 13 15  1  0  0  0
 13 38  1  0  0  0
 14 39  1  0  0  0
 14 40  1  0  0  0
 14 41  1  0  0  0
 15 42  1  0  0  0
 15 43  1  0  0  0
 44 45  1  0  0  0
 44 46  1  0  0  0
M  CHG  1  44   1
M  END
> <energy>
12.4

> <chiral flag>
0

> <version>
0

> <i_ionizer_Ion_state_n>
1

> <i_ionizer_Tot_Q>
1

> <s_ionizer_Ion_centers>
44

> <s_ionizer_Ion_types>
N5

> <s_ionizer_Ion_ctrs_in>
9

> <r_ionizer_Ionization_penalty>
0.000148807

> <r_ionizer_Ionization_penalty_charging>
0.000148807

> <r_ionizer_Ionization_penalty_neutral>
0

$$$$
ZINC001258432751
                    3D
 Structure written by MMmdl.
 46 46  0  0  1  0            999 V2000
   -4.0852   -1.2620    0.7238 C   0  0  0  0  0  0
   -2.9639   -2.2664    0.5070 C   0  0  0  0  0  0
   -1.7892   -1.6415   -0.2466 C   0  0  0  0  0  0
   -0.6559   -2.6530   -0.4277 C   0  0  0  0  0  0
    0.5778   -2.0639   -1.1169 C   0  0  0  0  0  0
    1.7390   -1.4908   -0.2568 C   0  0  2  0  0  0
    1.7585   -1.7265    1.2701 C   0  0  0  0  0  0
    0.8218   -0.9207    2.1531 C   0  0  0  0  0  0
    1.2383    0.9433   -0.6578 C   0  0  2  0  0  0
    0.8815    1.3898   -2.0899 C   0  0  0  0  0  0
    0.4855    2.8630   -2.1537 C   0  0  0  0  0  0
   -0.1256    3.2637   -0.9339 O   0  0  0  0  0  0
    0.8070    3.2947    0.1557 C   0  0  1  0  0  0
   -0.0120    3.2474    1.4392 C   0  0  0  0  0  0
    1.8267    2.1446    0.0916 C   0  0  0  0  0  0
   -3.7329   -0.3986    1.2976 H   0  0  0  0  0  0
   -4.9080   -1.7242    1.2790 H   0  0  0  0  0  0
   -4.4783   -0.9026   -0.2318 H   0  0  0  0  0  0
   -2.6250   -2.6438    1.4792 H   0  0  0  0  0  0
   -3.3505   -3.1248   -0.0563 H   0  0  0  0  0  0
   -1.4401   -0.7564    0.2914 H   0  0  0  0  0  0
   -2.1301   -1.2937   -1.2292 H   0  0  0  0  0  0
   -0.3952   -3.1328    0.5188 H   0  0  0  0  0  0
   -1.0417   -3.4586   -1.0675 H   0  0  0  0  0  0
    0.2575   -1.3454   -1.8776 H   0  0  0  0  0  0
    1.0163   -2.8819   -1.7104 H   0  0  0  0  0  0
    2.5874   -2.1220   -0.5703 H   0  0  0  0  0  0
    2.7808   -1.5268    1.6242 H   0  0  0  0  0  0
    1.5985   -2.7935    1.4710 H   0  0  0  0  0  0
   -0.2220   -1.1915    1.9977 H   0  0  0  0  0  0
    1.0452   -1.1271    3.2059 H   0  0  0  0  0  0
    0.9352    0.1536    2.0103 H   0  0  0  0  0  0
    0.3181    0.6421   -0.1498 H   0  0  0  0  0  0
    1.7051    1.2260   -2.7955 H   0  0  0  0  0  0
    0.0426    0.7813   -2.4501 H   0  0  0  0  0  0
   -0.2246    3.0257   -2.9700 H   0  0  0  0  0  0
    1.3545    3.4999   -2.3547 H   0  0  0  0  0  0
    1.3405    4.2532    0.1218 H   0  0  0  0  0  0
   -0.6903    4.1066    1.4933 H   0  0  0  0  0  0
    0.6293    3.2622    2.3258 H   0  0  0  0  0  0
   -0.6404    2.3496    1.4736 H   0  0  0  0  0  0
    2.1790    1.8808    1.0952 H   0  0  0  0  0  0
    2.7160    2.4985   -0.4494 H   0  0  0  0  0  0
    2.2714   -0.1429   -0.6701 N   0  3  0  0  0  0
    3.0253    0.1198   -0.0243 H   0  0  0  0  0  0
    2.6480   -0.2211   -1.6221 H   0  0  0  0  0  0
  1  2  1  0  0  0
  1 16  1  0  0  0
  1 17  1  0  0  0
  1 18  1  0  0  0
  2  3  1  0  0  0
  2 19  1  0  0  0
  2 20  1  0  0  0
  3  4  1  0  0  0
  3 21  1  0  0  0
  3 22  1  0  0  0
  4  5  1  0  0  0
  4 23  1  0  0  0
  4 24  1  0  0  0
  5  6  1  0  0  0
  5 25  1  0  0  0
  5 26  1  0  0  0
  6  7  1  0  0  0
  6 27  1  0  0  0
  6 44  1  0  0  0
  7  8  1  0  0  0
  7 28  1  0  0  0
  7 29  1  0  0  0
  8 30  1  0  0  0
  8 31  1  0  0  0
  8 32  1  0  0  0
  9 10  1  0  0  0
  9 15  1  0  0  0
  9 33  1  0  0  0
  9 44  1  0  0  0
 10 11  1  0  0  0
 10 34  1  0  0  0
 10 35  1  0  0  0
 11 12  1  0  0  0
 11 36  1  0  0  0
 11 37  1  0  0  0
 12 13  1  0  0  0
 13 14  1  0  0  0
 13 15  1  0  0  0
 13 38  1  0  0  0
 14 39  1  0  0  0
 14 40  1  0  0  0
 14 41  1  0  0  0
 15 42  1  0  0  0
 15 43  1  0  0  0
 44 45  1  0  0  0
 44 46  1  0  0  0
M  CHG  1  44   1
M  END
> <energy>
28.3842

> <chiral flag>
0

> <version>
0

> <i_ionizer_Ion_state_n>
1

> <i_ionizer_Tot_Q>
1

> <s_ionizer_Ion_centers>
44

> <s_ionizer_Ion_types>
N5

> <s_ionizer_Ion_ctrs_in>
9

> <r_ionizer_Ionization_penalty>
0.000148807

> <r_ionizer_Ionization_penalty_charging>
0.000148807

> <r_ionizer_Ionization_penalty_neutral>
0

$$$$
ZINC001258432753
                    3D
 Structure written by MMmdl.
 46 46  0  0  1  0            999 V2000
   -4.8948    1.3321    1.1825 C   0  0  0  0  0  0
   -4.2406    0.1126    0.5508 C   0  0  0  0  0  0
   -3.0793    0.5143   -0.3628 C   0  0  0  0  0  0
   -2.4065   -0.6875   -1.0333 C   0  0  0  0  0  0
   -1.5460   -1.5468   -0.0915 C   0  0  0  0  0  0
   -0.0205   -1.3514   -0.2727 C   0  0  2  0  0  0
    0.7760   -2.4244    0.5020 C   0  0  0  0  0  0
    0.6235   -2.3903    2.0189 C   0  0  0  0  0  0
    0.9918    0.8075   -0.9233 C   0  0  1  0  0  0
    1.1683    2.2510   -0.4256 C   0  0  0  0  0  0
    2.3427    2.3794    0.5363 C   0  0  0  0  0  0
    3.5465    1.9053   -0.0693 O   0  0  0  0  0  0
    3.4609    0.5142   -0.4016 C   0  0  2  0  0  0
    4.8137    0.0901   -0.9595 C   0  0  0  0  0  0
    2.3501    0.2936   -1.4314 C   0  0  0  0  0  0
   -5.2881    2.0083    0.4162 H   0  0  0  0  0  0
   -5.7265    1.0258    1.8251 H   0  0  0  0  0  0
   -4.1783    1.8870    1.7964 H   0  0  0  0  0  0
   -4.9925   -0.4377   -0.0270 H   0  0  0  0  0  0
   -3.8955   -0.5551    1.3472 H   0  0  0  0  0  0
   -3.4686    1.1706   -1.1507 H   0  0  0  0  0  0
   -2.3453    1.1024    0.1973 H   0  0  0  0  0  0
   -3.1905   -1.3221   -1.4655 H   0  0  0  0  0  0
   -1.8074   -0.3363   -1.8811 H   0  0  0  0  0  0
   -1.8324   -1.3850    0.9534 H   0  0  0  0  0  0
   -1.7724   -2.5996   -0.3101 H   0  0  0  0  0  0
    0.1932   -1.5110   -1.3378 H   0  0  0  0  0  0
    0.4762   -3.4170    0.1443 H   0  0  0  0  0  0
    1.8417   -2.3262    0.2605 H   0  0  0  0  0  0
   -0.4095   -2.5770    2.3250 H   0  0  0  0  0  0
    1.2438   -3.1723    2.4692 H   0  0  0  0  0  0
    0.9421   -1.4305    2.4373 H   0  0  0  0  0  0
    0.2786    0.8289   -1.7565 H   0  0  0  0  0  0
    1.3619    2.8882   -1.2985 H   0  0  0  0  0  0
    0.2502    2.6248    0.0428 H   0  0  0  0  0  0
    2.1659    1.8411    1.4741 H   0  0  0  0  0  0
    2.4965    3.4328    0.7901 H   0  0  0  0  0  0
    3.2688   -0.0592    0.5135 H   0  0  0  0  0  0
    5.6038    0.2632   -0.2204 H   0  0  0  0  0  0
    4.8183   -0.9700   -1.2306 H   0  0  0  0  0  0
    5.0786    0.6803   -1.8438 H   0  0  0  0  0  0
    2.5955    0.8550   -2.3433 H   0  0  0  0  0  0
    2.3021   -0.7614   -1.7209 H   0  0  0  0  0  0
    0.4327   -0.0108    0.1912 N   0  3  0  0  0  0
   -0.3678    0.4869    0.5984 H   0  0  0  0  0  0
    1.1582   -0.1356    0.9069 H   0  0  0  0  0  0
  1  2  1  0  0  0
  1 16  1  0  0  0
  1 17  1  0  0  0
  1 18  1  0  0  0
  2  3  1  0  0  0
  2 19  1  0  0  0
  2 20  1  0  0  0
  3  4  1  0  0  0
  3 21  1  0  0  0
  3 22  1  0  0  0
  4  5  1  0  0  0
  4 23  1  0  0  0
  4 24  1  0  0  0
  5  6  1  0  0  0
  5 25  1  0  0  0
  5 26  1  0  0  0
  6  7  1  0  0  0
  6 27  1  0  0  0
  6 44  1  0  0  0
  7  8  1  0  0  0
  7 28  1  0  0  0
  7 29  1  0  0  0
  8 30  1  0  0  0
  8 31  1  0  0  0
  8 32  1  0  0  0
  9 10  1  0  0  0
  9 15  1  0  0  0
  9 33  1  0  0  0
  9 44  1  0  0  0
 10 11  1  0  0  0
 10 34  1  0  0  0
 10 35  1  0  0  0
 11 12  1  0  0  0
 11 36  1  0  0  0
 11 37  1  0  0  0
 12 13  1  0  0  0
 13 14  1  0  0  0
 13 15  1  0  0  0
 13 38  1  0  0  0
 14 39  1  0  0  0
 14 40  1  0  0  0
 14 41  1  0  0  0
 15 42  1  0  0  0
 15 43  1  0  0  0
 44 45  1  0  0  0
 44 46  1  0  0  0
M  CHG  1  44   1
M  END
> <energy>
9.86883

> <chiral flag>
0

> <version>
0

> <i_ionizer_Ion_state_n>
1

> <i_ionizer_Tot_Q>
1

> <s_ionizer_Ion_centers>
44

> <s_ionizer_Ion_types>
N5

> <s_ionizer_Ion_ctrs_in>
9

> <r_ionizer_Ionization_penalty>
0.000148807

> <r_ionizer_Ionization_penalty_charging>
0.000148807

> <r_ionizer_Ionization_penalty_neutral>
0

$$$$
ZINC001258433009
                    3D
 Structure written by MMmdl.
 41 41  0  0  1  0            999 V2000
   -2.4347    3.5483   -1.0082 C   0  0  0  0  0  0
   -1.7601    2.3144   -0.4237 C   0  0  0  0  0  0
   -2.7535    1.1631   -0.2189 C   0  0  0  0  0  0
   -2.1039   -0.0754    0.4082 C   0  0  0  0  0  0
   -1.2520   -0.8773   -0.5858 C   0  0  0  0  0  0
   -0.3811   -1.9401    0.1320 C   0  0  1  0  0  0
   -0.8462   -3.3799   -0.1759 C   0  0  0  0  0  0
   -2.2481   -3.6848    0.3357 C   0  0  0  0  0  0
    1.6673   -0.6238    0.3035 C   0  0  0  0  0  0
    3.0012   -0.3195   -0.3903 C   0  0  0  0  0  0
    3.6272    0.9201    0.1705 C   0  0  0  0  0  0
    4.5771    1.0462    1.1653 C   0  0  0  0  0  0
    4.9473    2.3391    1.4797 N   0  0  0  0  0  0
    4.2888    3.1781    0.7108 C   0  0  0  0  0  0
    3.1934    2.4793   -0.4060 S   0  0  0  0  0  0
   -3.2341    3.9110   -0.3529 H   0  0  0  0  0  0
   -1.7036    4.3556   -1.1275 H   0  0  0  0  0  0
   -2.8662    3.3319   -1.9914 H   0  0  0  0  0  0
   -0.9469    2.0124   -1.0924 H   0  0  0  0  0  0
   -1.3027    2.5816    0.5363 H   0  0  0  0  0  0
   -3.5556    1.5066    0.4453 H   0  0  0  0  0  0
   -3.2223    0.8968   -1.1735 H   0  0  0  0  0  0
   -2.8918   -0.7247    0.8033 H   0  0  0  0  0  0
   -1.4954    0.2358    1.2663 H   0  0  0  0  0  0
   -1.9028   -1.3408   -1.3376 H   0  0  0  0  0  0
   -0.6260   -0.1835   -1.1563 H   0  0  0  0  0  0
   -0.4247   -1.8104    1.2208 H   0  0  0  0  0  0
   -0.8025   -3.5769   -1.2536 H   0  0  0  0  0  0
   -0.1587   -4.0913    0.3002 H   0  0  0  0  0  0
   -2.3163   -3.5179    1.4159 H   0  0  0  0  0  0
   -2.4988   -4.7318    0.1411 H   0  0  0  0  0  0
   -3.0037   -3.0665   -0.1552 H   0  0  0  0  0  0
    1.8308   -0.8007    1.3753 H   0  0  0  0  0  0
    1.0215    0.2580    0.2221 H   0  0  0  0  0  0
    2.8502   -0.2050   -1.4711 H   0  0  0  0  0  0
    3.6916   -1.1618   -0.2589 H   0  0  0  0  0  0
    5.0315    0.2220    1.7036 H   0  0  0  0  0  0
    4.4270    4.2492    0.7729 H   0  0  0  0  0  0
    1.0331   -1.8125   -0.3095 N   0  3  0  0  0  0
    1.5511   -2.6534   -0.0287 H   0  0  0  0  0  0
    1.0601   -1.7194   -1.3317 H   0  0  0  0  0  0
  1  2  1  0  0  0
  1 16  1  0  0  0
  1 17  1  0  0  0
  1 18  1  0  0  0
  2  3  1  0  0  0
  2 19  1  0  0  0
  2 20  1  0  0  0
  3  4  1  0  0  0
  3 21  1  0  0  0
  3 22  1  0  0  0
  4  5  1  0  0  0
  4 23  1  0  0  0
  4 24  1  0  0  0
  5  6  1  0  0  0
  5 25  1  0  0  0
  5 26  1  0  0  0
  6  7  1  0  0  0
  6 27  1  0  0  0
  6 39  1  0  0  0
  7  8  1  0  0  0
  7 28  1  0  0  0
  7 29  1  0  0  0
  8 30  1  0  0  0
  8 31  1  0  0  0
  8 32  1  0  0  0
  9 10  1  0  0  0
  9 33  1  0  0  0
  9 34  1  0  0  0
  9 39  1  0  0  0
 10 11  1  0  0  0
 10 35  1  0  0  0
 10 36  1  0  0  0
 11 12  2  0  0  0
 11 15  1  0  0  0
 12 13  1  0  0  0
 12 37  1  0  0  0
 13 14  2  0  0  0
 14 15  1  0  0  0
 14 38  1  0  0  0
 39 40  1  0  0  0
 39 41  1  0  0  0
M  CHG  1  39   1
M  END
> <energy>
19.8071

> <chiral flag>
0

> <version>
0

> <i_ionizer_Ion_state_n>
1

> <i_ionizer_Tot_Q>
1

> <s_ionizer_Ion_centers>
39

> <s_ionizer_Ion_types>
N5

> <s_ionizer_Ion_ctrs_in>
9

> <r_ionizer_Ionization_penalty>
0.000148807

> <r_ionizer_Ionization_penalty_charging>
0.000148807

> <r_ionizer_Ionization_penalty_neutral>
0

$$$$
ZINC001258433010
                    3D
 Structure written by MMmdl.
 41 41  0  0  1  0            999 V2000
   -3.2646    1.9057    1.1639 C   0  0  0  0  0  0
   -3.5344    0.4272    0.9053 C   0  0  0  0  0  0
   -3.3278    0.0253   -0.5629 C   0  0  0  0  0  0
   -1.8622   -0.1559   -0.9576 C   0  0  0  0  0  0
   -1.2458   -1.4487   -0.4004 C   0  0  0  0  0  0
    0.3012   -1.4410   -0.4369 C   0  0  2  0  0  0
    0.8463   -2.8539   -0.1196 C   0  0  0  0  0  0
    0.6239   -3.3618    1.2994 C   0  0  0  0  0  0
    2.2110   -0.1951    0.5601 C   0  0  0  0  0  0
    2.6016    1.2807    0.8231 C   0  0  0  0  0  0
    2.8784    2.0532   -0.4355 C   0  0  0  0  0  0
    2.0233    2.4471   -1.4464 C   0  0  0  0  0  0
    2.6032    3.1670   -2.4823 N   0  0  0  0  0  0
    3.8870    3.3141   -2.2494 C   0  0  0  0  0  0
    4.4726    2.6050   -0.8011 S   0  0  0  0  0  0
   -2.2025    2.1470    1.0642 H   0  0  0  0  0  0
   -3.5756    2.1703    2.1812 H   0  0  0  0  0  0
   -3.8236    2.5339    0.4642 H   0  0  0  0  0  0
   -2.9230   -0.1773    1.5850 H   0  0  0  0  0  0
   -4.5788    0.2250    1.1660 H   0  0  0  0  0  0
   -3.8721   -0.9024   -0.7657 H   0  0  0  0  0  0
   -3.7757    0.7900   -1.2105 H   0  0  0  0  0  0
   -1.2929    0.7282   -0.6602 H   0  0  0  0  0  0
   -1.7940   -0.1908   -2.0538 H   0  0  0  0  0  0
   -1.5958   -1.6320    0.6196 H   0  0  0  0  0  0
   -1.6253   -2.2871   -0.9961 H   0  0  0  0  0  0
    0.6057   -1.1958   -1.4640 H   0  0  0  0  0  0
    0.3878   -3.5705   -0.8134 H   0  0  0  0  0  0
    1.9178   -2.8796   -0.3381 H   0  0  0  0  0  0
   -0.4351   -3.5396    1.5137 H   0  0  0  0  0  0
    1.1363   -4.3206    1.4285 H   0  0  0  0  0  0
    1.0216   -2.6674    2.0448 H   0  0  0  0  0  0
    2.5341   -0.7989    1.4187 H   0  0  0  0  0  0
    2.7447   -0.5730   -0.3151 H   0  0  0  0  0  0
    1.8307    1.8004    1.4066 H   0  0  0  0  0  0
    3.4932    1.2921    1.4681 H   0  0  0  0  0  0
    0.9615    2.2345   -1.4869 H   0  0  0  0  0  0
    4.5444    3.8522   -2.9241 H   0  0  0  0  0  0
    0.7306   -0.3287    0.4654 N   0  3  0  0  0  0
    0.3450    0.5522    0.1054 H   0  0  0  0  0  0
    0.3574   -0.5070    1.4051 H   0  0  0  0  0  0
  1  2  1  0  0  0
  1 16  1  0  0  0
  1 17  1  0  0  0
  1 18  1  0  0  0
  2  3  1  0  0  0
  2 19  1  0  0  0
  2 20  1  0  0  0
  3  4  1  0  0  0
  3 21  1  0  0  0
  3 22  1  0  0  0
  4  5  1  0  0  0
  4 23  1  0  0  0
  4 24  1  0  0  0
  5  6  1  0  0  0
  5 25  1  0  0  0
  5 26  1  0  0  0
  6  7  1  0  0  0
  6 27  1  0  0  0
  6 39  1  0  0  0
  7  8  1  0  0  0
  7 28  1  0  0  0
  7 29  1  0  0  0
  8 30  1  0  0  0
  8 31  1  0  0  0
  8 32  1  0  0  0
  9 10  1  0  0  0
  9 33  1  0  0  0
  9 34  1  0  0  0
  9 39  1  0  0  0
 10 11  1  0  0  0
 10 35  1  0  0  0
 10 36  1  0  0  0
 11 12  2  0  0  0
 11 15  1  0  0  0
 12 13  1  0  0  0
 12 37  1  0  0  0
 13 14  2  0  0  0
 14 15  1  0  0  0
 14 38  1  0  0  0
 39 40  1  0  0  0
 39 41  1  0  0  0
M  CHG  1  39   1
M  END
> <energy>
22.091

> <chiral flag>
0

> <version>
0

> <i_ionizer_Ion_state_n>
1

> <i_ionizer_Tot_Q>
1

> <s_ionizer_Ion_centers>
39

> <s_ionizer_Ion_types>
N5

> <s_ionizer_Ion_ctrs_in>
9

> <r_ionizer_Ionization_penalty>
0.000148807

> <r_ionizer_Ionization_penalty_charging>
0.000148807

> <r_ionizer_Ionization_penalty_neutral>
0

$$$$
ZINC001258433017
                    3D
 Structure written by MMmdl.
 53 52  0  0  1  0            999 V2000
   -3.5368    2.9165   -0.1268 C   0  0  0  0  0  0
   -2.9414    1.7802    0.6840 C   0  0  0  0  0  0
   -3.3371    0.4145    0.1211 C   0  0  0  0  0  0
   -2.6959   -0.7225    0.9398 C   0  0  0  0  0  0
   -2.3005   -1.9352    0.0821 C   0  0  0  0  0  0
   -0.8289   -1.9727   -0.4322 C   0  0  2  0  0  0
    0.0991   -2.6747    0.5802 C   0  0  0  0  0  0
    0.2002   -2.0504    1.9600 C   0  0  0  0  0  0
    0.8156   -0.4727   -1.6960 C   0  0  0  0  0  0
    0.5461    0.7376   -2.6330 C   0  0  0  0  0  0
    1.1029   -1.6762   -2.6181 C   0  0  0  0  0  0
    2.0764   -0.1668   -0.8356 C   0  0  0  0  0  0
    1.9396    1.0082    0.1528 C   0  0  0  0  0  0
    2.9993    2.6513    1.5560 C   0  0  0  0  0  0
    3.8783    0.4247    1.5330 C   0  0  0  0  0  0
   -3.1904    3.8782    0.2631 H   0  0  0  0  0  0
   -3.2301    2.8491   -1.1756 H   0  0  0  0  0  0
   -4.6285    2.9000   -0.0844 H   0  0  0  0  0  0
   -1.8493    1.8750    0.6836 H   0  0  0  0  0  0
   -3.2716    1.8576    1.7248 H   0  0  0  0  0  0
   -4.4305    0.3018    0.1429 H   0  0  0  0  0  0
   -3.0537    0.3627   -0.9369 H   0  0  0  0  0  0
   -1.8371   -0.3485    1.5021 H   0  0  0  0  0  0
   -3.4337   -1.0429    1.6887 H   0  0  0  0  0  0
   -2.4893   -2.8453    0.6640 H   0  0  0  0  0  0
   -2.9760   -1.9979   -0.7818 H   0  0  0  0  0  0
   -0.8723   -2.6267   -1.3132 H   0  0  0  0  0  0
    1.1034   -2.7792    0.1635 H   0  0  0  0  0  0
   -0.2571   -3.7045    0.7035 H   0  0  0  0  0  0
    0.4067   -0.9802    1.9231 H   0  0  0  0  0  0
   -0.7259   -2.2061    2.5199 H   0  0  0  0  0  0
    1.0049   -2.5279    2.5263 H   0  0  0  0  0  0
    1.4513    1.0143   -3.1856 H   0  0  0  0  0  0
    0.2060    1.6244   -2.0868 H   0  0  0  0  0  0
   -0.2317    0.5071   -3.3731 H   0  0  0  0  0  0
    1.3651   -2.5765   -2.0545 H   0  0  0  0  0  0
    1.9418   -1.4622   -3.2900 H   0  0  0  0  0  0
    0.2358   -1.9126   -3.2473 H   0  0  0  0  0  0
    2.9099    0.0513   -1.5162 H   0  0  0  0  0  0
    2.3671   -1.0679   -0.2876 H   0  0  0  0  0  0
    1.5141    1.8616   -0.3829 H   0  0  0  0  0  0
    1.2322    0.7540    0.9485 H   0  0  0  0  0  0
    2.5468    3.4541    0.9648 H   0  0  0  0  0  0
    3.9533    3.0371    1.9278 H   0  0  0  0  0  0
    2.3508    2.4444    2.4156 H   0  0  0  0  0  0
    4.2037   -0.4148    0.9110 H   0  0  0  0  0  0
    3.2353    0.0456    2.3339 H   0  0  0  0  0  0
    4.7904    0.8265    1.9914 H   0  0  0  0  0  0
   -0.4461   -0.5718   -0.8530 N   0  3  0  0  0  0
   -1.2237   -0.1798   -1.3970 H   0  0  0  0  0  0
   -0.3060   -0.0120   -0.0038 H   0  0  0  0  0  0
    3.2371    1.4775    0.7192 N   0  3  0  0  0  0
    3.8653    1.7311   -0.0523 H   0  0  0  0  0  0
  1  2  1  0  0  0
  1 16  1  0  0  0
  1 17  1  0  0  0
  1 18  1  0  0  0
  2  3  1  0  0  0
  2 19  1  0  0  0
  2 20  1  0  0  0
  3  4  1  0  0  0
  3 21  1  0  0  0
  3 22  1  0  0  0
  4  5  1  0  0  0
  4 23  1  0  0  0
  4 24  1  0  0  0
  5  6  1  0  0  0
  5 25  1  0  0  0
  5 26  1  0  0  0
  6  7  1  0  0  0
  6 27  1  0  0  0
  6 49  1  0  0  0
  7  8  1  0  0  0
  7 28  1  0  0  0
  7 29  1  0  0  0
  8 30  1  0  0  0
  8 31  1  0  0  0
  8 32  1  0  0  0
  9 10  1  0  0  0
  9 11  1  0  0  0
  9 12  1  0  0  0
  9 49  1  0  0  0
 10 33  1  0  0  0
 10 34  1  0  0  0
 10 35  1  0  0  0
 11 36  1  0  0  0
 11 37  1  0  0  0
 11 38  1  0  0  0
 12 13  1  0  0  0
 12 39  1  0  0  0
 12 40  1  0  0  0
 13 41  1  0  0  0
 13 42  1  0  0  0
 13 52  1  0  0  0
 14 43  1  0  0  0
 14 44  1  0  0  0
 14 45  1  0  0  0
 14 52  1  0  0  0
 15 46  1  0  0  0
 15 47  1  0  0  0
 15 48  1  0  0  0
 15 52  1  0  0  0
 49 50  1  0  0  0
 49 51  1  0  0  0
 52 53  1  0  0  0
M  CHG  2  49   1  52   1
M  END
> <energy>
27.9687

> <chiral flag>
0

> <version>
0

> <i_ionizer_Ion_state_n>
3

> <i_ionizer_Tot_Q>
2

> <s_ionizer_Ion_centers>
49_52

> <s_ionizer_Ion_types>
N5_N5

> <s_ionizer_Ion_ctrs_in>
9_15

> <r_ionizer_Ionization_penalty>
0.0016352

> <r_ionizer_Ionization_penalty_charging>
0.0016352

> <r_ionizer_Ionization_penalty_neutral>
0

$$$$
ZINC001258433018
                    3D
 Structure written by MMmdl.
 53 52  0  0  1  0            999 V2000
   -0.1432    2.9479   -2.4793 C   0  0  0  0  0  0
   -0.9498    1.9980   -3.3487 C   0  0  0  0  0  0
   -1.0342    0.5822   -2.7716 C   0  0  0  0  0  0
   -2.0641    0.4536   -1.6519 C   0  0  0  0  0  0
   -2.2320   -1.0048   -1.2058 C   0  0  0  0  0  0
   -1.0751   -1.4895   -0.2125 C   0  0  3  0  0  0
   -1.0236   -2.9926   -0.6654 C   0  0  0  0  0  0
   -0.2300   -3.1498   -1.9647 C   0  0  0  0  0  0
    0.4068   -1.4142    1.8631 C   0  0  0  0  0  0
    1.6605   -1.5912    0.9765 C   0  0  0  0  0  0
    0.5792   -2.3453    3.0854 C   0  0  0  0  0  0
    0.2391    0.0378    2.4045 C   0  0  0  0  0  0
    0.4953    1.1797    1.4039 C   0  0  0  0  0  0
    2.3785    2.4440    0.5302 C   0  0  0  0  0  0
    1.5592    2.8973    2.7408 C   0  0  0  0  0  0
   -0.1019    3.9401   -2.9448 H   0  0  0  0  0  0
   -0.5866    3.0634   -1.4852 H   0  0  0  0  0  0
    0.8871    2.5887   -2.3697 H   0  0  0  0  0  0
   -1.9529    2.4145   -3.5038 H   0  0  0  0  0  0
   -0.4721    1.9507   -4.3384 H   0  0  0  0  0  0
   -1.3139   -0.0848   -3.5990 H   0  0  0  0  0  0
   -0.0530    0.2586   -2.4093 H   0  0  0  0  0  0
   -1.8157    1.0950   -0.8000 H   0  0  0  0  0  0
   -3.0304    0.8064   -2.0294 H   0  0  0  0  0  0
   -2.3239   -1.6182   -2.1112 H   0  0  0  0  0  0
   -3.2161   -1.1084   -0.7182 H   0  0  0  0  0  0
   -1.6758   -0.8158    0.4179 H   0  0  0  0  0  0
   -0.5085   -3.6732    0.0388 H   0  0  0  0  0  0
   -2.0255   -3.4325   -0.7801 H   0  0  0  0  0  0
    0.6289   -2.4698   -1.9911 H   0  0  0  0  0  0
   -0.8455   -2.9635   -2.8487 H   0  0  0  0  0  0
    0.1537   -4.1739   -2.0484 H   0  0  0  0  0  0
    2.5606   -1.2593    1.5076 H   0  0  0  0  0  0
    1.8132   -2.6426    0.7123 H   0  0  0  0  0  0
    1.5937   -1.0351    0.0376 H   0  0  0  0  0  0
   -0.2710   -2.2681    3.7789 H   0  0  0  0  0  0
    0.6695   -3.3986    2.7797 H   0  0  0  0  0  0
    1.4882   -2.0936    3.6495 H   0  0  0  0  0  0
    0.8936    0.1645    3.2801 H   0  0  0  0  0  0
   -0.7744    0.1585    2.8113 H   0  0  0  0  0  0
   -0.3380    1.8948    1.4235 H   0  0  0  0  0  0
    0.5069    0.7905    0.3826 H   0  0  0  0  0  0
    2.6192    1.6623   -0.2005 H   0  0  0  0  0  0
    1.7311    3.1913    0.0551 H   0  0  0  0  0  0
    3.3303    2.9266    0.7858 H   0  0  0  0  0  0
    2.5121    3.3599    3.0214 H   0  0  0  0  0  0
    0.8887    3.6909    2.3851 H   0  0  0  0  0  0
    1.1380    2.4739    3.6603 H   0  0  0  0  0  0
   -0.8546   -1.9439    1.2360 N   0  3  0  0  0  0
   -1.6520   -1.6252    1.7988 H   0  0  0  0  0  0
   -0.8143   -2.9698    1.2495 H   0  0  0  0  0  0
    1.7841    1.8456    1.7355 N   0  3  0  0  0  0
    2.4322    1.1468    2.1175 H   0  0  0  0  0  0
  1  2  1  0  0  0
  1 16  1  0  0  0
  1 17  1  0  0  0
  1 18  1  0  0  0
  2  3  1  0  0  0
  2 19  1  0  0  0
  2 20  1  0  0  0
  3  4  1  0  0  0
  3 21  1  0  0  0
  3 22  1  0  0  0
  4  5  1  0  0  0
  4 23  1  0  0  0
  4 24  1  0  0  0
  5  6  1  0  0  0
  5 25  1  0  0  0
  5 26  1  0  0  0
  6  7  1  0  0  0
  6 27  1  0  0  0
  6 49  1  0  0  0
  7  8  1  0  0  0
  7 28  1  0  0  0
  7 29  1  0  0  0
  8 30  1  0  0  0
  8 31  1  0  0  0
  8 32  1  0  0  0
  9 10  1  0  0  0
  9 11  1  0  0  0
  9 12  1  0  0  0
  9 49  1  0  0  0
 10 33  1  0  0  0
 10 34  1  0  0  0
 10 35  1  0  0  0
 11 36  1  0  0  0
 11 37  1  0  0  0
 11 38  1  0  0  0
 12 13  1  0  0  0
 12 39  1  0  0  0
 12 40  1  0  0  0
 13 41  1  0  0  0
 13 42  1  0  0  0
 13 52  1  0  0  0
 14 43  1  0  0  0
 14 44  1  0  0  0
 14 45  1  0  0  0
 14 52  1  0  0  0
 15 46  1  0  0  0
 15 47  1  0  0  0
 15 48  1  0  0  0
 15 52  1  0  0  0
 49 50  1  0  0  0
 49 51  1  0  0  0
 52 53  1  0  0  0
M  CHG  2  49   1  52   1
M  END
> <energy>
118.951

> <chiral flag>
0

> <version>
0

> <i_ionizer_Ion_state_n>
3

> <i_ionizer_Tot_Q>
2

> <s_ionizer_Ion_centers>
49_52

> <s_ionizer_Ion_types>
N5_N5

> <s_ionizer_Ion_ctrs_in>
9_15

> <r_ionizer_Ionization_penalty>
0.0016352

> <r_ionizer_Ionization_penalty_charging>
0.0016352

> <r_ionizer_Ionization_penalty_neutral>
0

$$$$
ZINC001258433268
                    3D
 Structure written by MMmdl.
 48 47  0  0  1  0            999 V2000
   -4.7364    3.2523    0.4297 C   0  0  0  0  0  0
   -3.3908    2.7464    0.9226 C   0  0  0  0  0  0
   -2.7197    1.7755   -0.0483 C   0  0  0  0  0  0
   -3.4079    0.4057   -0.1176 C   0  0  0  0  0  0
   -2.5220   -0.7538    0.3627 C   0  0  0  0  0  0
   -1.2724   -0.9933   -0.5221 C   0  0  2  0  0  0
   -1.2497   -2.4303   -1.0852 C   0  0  0  0  0  0
   -0.1567   -2.6454   -2.1253 C   0  0  0  0  0  0
    0.3450   -1.4429    1.3074 C   0  0  0  0  0  0
    1.5392   -0.8223    2.0363 C   0  0  0  0  0  0
    2.8912   -1.0791    1.3736 C   0  0  0  0  0  0
    2.8829   -0.6973   -0.0021 O   0  0  0  0  0  0
    4.1958   -0.6667   -0.5655 C   0  0  0  0  0  0
    4.8646    0.6879   -0.3384 C   0  0  0  0  0  0
    4.1558    1.7971   -1.1002 C   0  0  0  0  0  0
   -5.4731    2.4487    0.3528 H   0  0  0  0  0  0
   -4.6395    3.7167   -0.5573 H   0  0  0  0  0  0
   -5.1309    4.0014    1.1229 H   0  0  0  0  0  0
   -3.5077    2.2723    1.9024 H   0  0  0  0  0  0
   -2.7293    3.6090    1.0650 H   0  0  0  0  0  0
   -2.7026    2.2213   -1.0507 H   0  0  0  0  0  0
   -1.6719    1.6719    0.2570 H   0  0  0  0  0  0
   -3.7199    0.2053   -1.1499 H   0  0  0  0  0  0
   -4.3210    0.3980    0.4887 H   0  0  0  0  0  0
   -3.1355   -1.6637    0.4052 H   0  0  0  0  0  0
   -2.2483   -0.5360    1.4023 H   0  0  0  0  0  0
   -1.3471   -0.3271   -1.3925 H   0  0  0  0  0  0
   -1.1384   -3.1634   -0.2790 H   0  0  0  0  0  0
   -2.2164   -2.6463   -1.5614 H   0  0  0  0  0  0
   -0.3045   -1.9849   -2.9867 H   0  0  0  0  0  0
    0.8386   -2.4533   -1.7138 H   0  0  0  0  0  0
   -0.1729   -3.6770   -2.4846 H   0  0  0  0  0  0
   -0.4733   -1.5202    2.0332 H   0  0  0  0  0  0
    0.6002   -2.4580    0.9792 H   0  0  0  0  0  0
    1.3839    0.2600    2.1322 H   0  0  0  0  0  0
    1.5776   -1.2226    3.0556 H   0  0  0  0  0  0
    3.1457   -2.1428    1.4434 H   0  0  0  0  0  0
    3.6537   -0.5081    1.9180 H   0  0  0  0  0  0
    4.8090   -1.4794   -0.1549 H   0  0  0  0  0  0
    4.0903   -0.8495   -1.6395 H   0  0  0  0  0  0
    4.8684    0.9440    0.7250 H   0  0  0  0  0  0
    5.9065    0.6399   -0.6711 H   0  0  0  0  0  0
    3.0981    1.8617   -0.8237 H   0  0  0  0  0  0
    4.2204    1.6183   -2.1785 H   0  0  0  0  0  0
    4.6231    2.7640   -0.8840 H   0  0  0  0  0  0
   -0.0241   -0.5579    0.1708 N   0  3  0  0  0  0
    0.7455   -0.5592   -0.5088 H   0  0  0  0  0  0
   -0.1631    0.3944    0.5287 H   0  0  0  0  0  0
  1  2  1  0  0  0
  1 16  1  0  0  0
  1 17  1  0  0  0
  1 18  1  0  0  0
  2  3  1  0  0  0
  2 19  1  0  0  0
  2 20  1  0  0  0
  3  4  1  0  0  0
  3 21  1  0  0  0
  3 22  1  0  0  0
  4  5  1  0  0  0
  4 23  1  0  0  0
  4 24  1  0  0  0
  5  6  1  0  0  0
  5 25  1  0  0  0
  5 26  1  0  0  0
  6  7  1  0  0  0
  6 27  1  0  0  0
  6 46  1  0  0  0
  7  8  1  0  0  0
  7 28  1  0  0  0
  7 29  1  0  0  0
  8 30  1  0  0  0
  8 31  1  0  0  0
  8 32  1  0  0  0
  9 10  1  0  0  0
  9 33  1  0  0  0
  9 34  1  0  0  0
  9 46  1  0  0  0
 10 11  1  0  0  0
 10 35  1  0  0  0
 10 36  1  0  0  0
 11 12  1  0  0  0
 11 37  1  0  0  0
 11 38  1  0  0  0
 12 13  1  0  0  0
 13 14  1  0  0  0
 13 39  1  0  0  0
 13 40  1  0  0  0
 14 15  1  0  0  0
 14 41  1  0  0  0
 14 42  1  0  0  0
 15 43  1  0  0  0
 15 44  1  0  0  0
 15 45  1  0  0  0
 46 47  1  0  0  0
 46 48  1  0  0  0
M  CHG  1  46   1
M  END
> <energy>
16.069

> <chiral flag>
0

> <version>
0

> <i_ionizer_Ion_state_n>
1

> <i_ionizer_Tot_Q>
1

> <s_ionizer_Ion_centers>
46

> <s_ionizer_Ion_types>
N5

> <s_ionizer_Ion_ctrs_in>
9

> <r_ionizer_Ionization_penalty>
0.000148807

> <r_ionizer_Ionization_penalty_charging>
0.000148807

> <r_ionizer_Ionization_penalty_neutral>
0

$$$$
ZINC001258433269
                    3D
 Structure written by MMmdl.
 48 47  0  0  1  0            999 V2000
    3.4913   -2.0455   -2.5281 C   0  0  0  0  0  0
    2.1587   -1.3343   -2.6905 C   0  0  0  0  0  0
    1.2117   -1.6182   -1.5253 C   0  0  0  0  0  0
   -0.0882   -0.8299   -1.6809 C   0  0  0  0  0  0
   -1.0748   -1.1380   -0.5492 C   0  0  0  0  0  0
   -2.4269   -0.3972   -0.7095 C   0  0  1  0  0  0
   -3.4315   -0.7031    0.4237 C   0  0  0  0  0  0
   -3.7965   -2.1791    0.5402 C   0  0  0  0  0  0
   -1.7366    1.7614    0.2840 C   0  0  0  0  0  0
   -0.6656    2.7646   -0.1427 C   0  0  0  0  0  0
    0.0161    3.4320    1.0535 C   0  0  0  0  0  0
    0.3772    2.5009    2.0752 O   0  0  0  0  0  0
    1.5403    1.7345    1.7641 C   0  0  0  0  0  0
    1.6506    0.6072    2.7818 C   0  0  0  0  0  0
    2.8932   -0.2330    2.5484 C   0  0  0  0  0  0
    4.0058   -1.7067   -1.6216 H   0  0  0  0  0  0
    3.3569   -3.1293   -2.4635 H   0  0  0  0  0  0
    4.1398   -1.8338   -3.3854 H   0  0  0  0  0  0
    1.6927   -1.6490   -3.6304 H   0  0  0  0  0  0
    2.3413   -0.2577   -2.7698 H   0  0  0  0  0  0
    0.9958   -2.6930   -1.4836 H   0  0  0  0  0  0
    1.6937   -1.3439   -0.5803 H   0  0  0  0  0  0
    0.1522    0.2376   -1.6976 H   0  0  0  0  0  0
   -0.5540   -1.0670   -2.6440 H   0  0  0  0  0  0
   -0.6143   -0.9043    0.4190 H   0  0  0  0  0  0
   -1.2555   -2.2199   -0.5474 H   0  0  0  0  0  0
   -2.8753   -0.7626   -1.6432 H   0  0  0  0  0  0
   -4.3560   -0.1368    0.2481 H   0  0  0  0  0  0
   -3.0399   -0.3735    1.3954 H   0  0  0  0  0  0
   -4.1475   -2.5669   -0.4195 H   0  0  0  0  0  0
   -2.9487   -2.7827    0.8724 H   0  0  0  0  0  0
   -4.6014   -2.3031    1.2714 H   0  0  0  0  0  0
   -2.5640    2.2833    0.7804 H   0  0  0  0  0  0
   -1.3130    1.0711    1.0191 H   0  0  0  0  0  0
   -1.0967    3.5337   -0.7945 H   0  0  0  0  0  0
    0.1024    2.2523   -0.7327 H   0  0  0  0  0  0
    0.8917    4.0111    0.7351 H   0  0  0  0  0  0
   -0.6843    4.1367    1.5137 H   0  0  0  0  0  0
    2.4156    2.3905    1.8221 H   0  0  0  0  0  0
    1.4749    1.3152    0.7545 H   0  0  0  0  0  0
    0.7563   -0.0258    2.7304 H   0  0  0  0  0  0
    1.6621    1.0241    3.7957 H   0  0  0  0  0  0
    2.9803   -1.0088    3.3171 H   0  0  0  0  0  0
    3.7970    0.3852    2.5855 H   0  0  0  0  0  0
    2.8547   -0.7259    1.5707 H   0  0  0  0  0  0
   -2.2531    1.0724   -0.9255 N   0  3  0  0  0  0
   -1.5904    1.2170   -1.6963 H   0  0  0  0  0  0
   -3.1621    1.4796   -1.1747 H   0  0  0  0  0  0
  1  2  1  0  0  0
  1 16  1  0  0  0
  1 17  1  0  0  0
  1 18  1  0  0  0
  2  3  1  0  0  0
  2 19  1  0  0  0
  2 20  1  0  0  0
  3  4  1  0  0  0
  3 21  1  0  0  0
  3 22  1  0  0  0
  4  5  1  0  0  0
  4 23  1  0  0  0
  4 24  1  0  0  0
  5  6  1  0  0  0
  5 25  1  0  0  0
  5 26  1  0  0  0
  6  7  1  0  0  0
  6 27  1  0  0  0
  6 46  1  0  0  0
  7  8  1  0  0  0
  7 28  1  0  0  0
  7 29  1  0  0  0
  8 30  1  0  0  0
  8 31  1  0  0  0
  8 32  1  0  0  0
  9 10  1  0  0  0
  9 33  1  0  0  0
  9 34  1  0  0  0
  9 46  1  0  0  0
 10 11  1  0  0  0
 10 35  1  0  0  0
 10 36  1  0  0  0
 11 12  1  0  0  0
 11 37  1  0  0  0
 11 38  1  0  0  0
 12 13  1  0  0  0
 13 14  1  0  0  0
 13 39  1  0  0  0
 13 40  1  0  0  0
 14 15  1  0  0  0
 14 41  1  0  0  0
 14 42  1  0  0  0
 15 43  1  0  0  0
 15 44  1  0  0  0
 15 45  1  0  0  0
 46 47  1  0  0  0
 46 48  1  0  0  0
M  CHG  1  46   1
M  END
> <energy>
5.33307

> <chiral flag>
0

> <version>
0

> <i_ionizer_Ion_state_n>
1

> <i_ionizer_Tot_Q>
1

> <s_ionizer_Ion_centers>
46

> <s_ionizer_Ion_types>
N5

> <s_ionizer_Ion_ctrs_in>
9

> <r_ionizer_Ionization_penalty>
0.000148807

> <r_ionizer_Ionization_penalty_charging>
0.000148807

> <r_ionizer_Ionization_penalty_neutral>
0

$$$$
ZINC001258433284
                    3D
 Structure written by MMmdl.
 46 46  0  0  1  0            999 V2000
   -4.0422    1.9418   -0.3495 C   0  0  0  0  0  0
   -4.6306    0.6742    0.2537 C   0  0  0  0  0  0
   -3.8647   -0.5969   -0.1254 C   0  0  0  0  0  0
   -2.4354   -0.6258    0.4225 C   0  0  0  0  0  0
   -1.7265   -1.9465    0.0815 C   0  0  0  0  0  0
   -0.2650   -1.9920    0.5885 C   0  0  1  0  0  0
    0.2948   -3.4324    0.5551 C   0  0  0  0  0  0
    0.4129   -4.0475   -0.8342 C   0  0  0  0  0  0
    1.7289   -0.5757    0.5793 C   0  0  0  0  0  0
    2.6170    0.3252   -0.2843 C   0  0  1  0  0  0
    2.0319    1.6634   -0.7642 C   0  0  0  0  0  0
    3.2200    2.3005   -0.0235 C   0  0  0  0  0  0
    2.8426    3.2629    1.0931 C   0  0  0  0  0  0
    4.3216    2.8471   -0.9222 C   0  0  0  0  0  0
    3.6080    1.0151    0.5298 O   0  0  0  0  0  0
   -3.9543    1.8539   -1.4372 H   0  0  0  0  0  0
   -3.0521    2.1606    0.0607 H   0  0  0  0  0  0
   -4.6856    2.7994   -0.1275 H   0  0  0  0  0  0
   -4.6700    0.7738    1.3438 H   0  0  0  0  0  0
   -5.6664    0.5724   -0.0911 H   0  0  0  0  0  0
   -4.4165   -1.4622    0.2603 H   0  0  0  0  0  0
   -3.8432   -0.6952   -1.2178 H   0  0  0  0  0  0
   -1.8745    0.2180    0.0116 H   0  0  0  0  0  0
   -2.4588   -0.4984    1.5119 H   0  0  0  0  0  0
   -1.7592   -2.1101   -1.0035 H   0  0  0  0  0  0
   -2.2907   -2.7683    0.5401 H   0  0  0  0  0  0
   -0.2852   -1.6676    1.6380 H   0  0  0  0  0  0
   -0.3462   -4.0775    1.1686 H   0  0  0  0  0  0
    1.2831   -3.4552    1.0311 H   0  0  0  0  0  0
    1.0696   -3.4590   -1.4816 H   0  0  0  0  0  0
    0.8349   -5.0548   -0.7588 H   0  0  0  0  0  0
   -0.5638   -4.1340   -1.3180 H   0  0  0  0  0  0
    1.3664   -0.0152    1.4502 H   0  0  0  0  0  0
    2.3357   -1.4105    0.9490 H   0  0  0  0  0  0
    3.1196   -0.2395   -1.0812 H   0  0  0  0  0  0
    1.0452    1.9180   -0.3654 H   0  0  0  0  0  0
    2.0220    1.7920   -1.8500 H   0  0  0  0  0  0
    2.0935    2.8263    1.7621 H   0  0  0  0  0  0
    3.7175    3.5231    1.6981 H   0  0  0  0  0  0
    2.4257    4.1895    0.6833 H   0  0  0  0  0  0
    3.9884    3.7560   -1.4358 H   0  0  0  0  0  0
    5.2157    3.0950   -0.3401 H   0  0  0  0  0  0
    4.6162    2.1203   -1.6869 H   0  0  0  0  0  0
    0.5812   -1.0754   -0.2166 N   0  3  0  0  0  0
    0.9360   -1.5799   -1.0374 H   0  0  0  0  0  0
    0.0132   -0.2774   -0.5245 H   0  0  0  0  0  0
  1  2  1  0  0  0
  1 16  1  0  0  0
  1 17  1  0  0  0
  1 18  1  0  0  0
  2  3  1  0  0  0
  2 19  1  0  0  0
  2 20  1  0  0  0
  3  4  1  0  0  0
  3 21  1  0  0  0
  3 22  1  0  0  0
  4  5  1  0  0  0
  4 23  1  0  0  0
  4 24  1  0  0  0
  5  6  1  0  0  0
  5 25  1  0  0  0
  5 26  1  0  0  0
  6  7  1  0  0  0
  6 27  1  0  0  0
  6 44  1  0  0  0
  7  8  1  0  0  0
  7 28  1  0  0  0
  7 29  1  0  0  0
  8 30  1  0  0  0
  8 31  1  0  0  0
  8 32  1  0  0  0
  9 10  1  0  0  0
  9 33  1  0  0  0
  9 34  1  0  0  0
  9 44  1  0  0  0
 10 11  1  0  0  0
 10 15  1  0  0  0
 10 35  1  0  0  0
 11 12  1  0  0  0
 11 36  1  0  0  0
 11 37  1  0  0  0
 12 13  1  0  0  0
 12 14  1  0  0  0
 12 15  1  0  0  0
 13 38  1  0  0  0
 13 39  1  0  0  0
 13 40  1  0  0  0
 14 41  1  0  0  0
 14 42  1  0  0  0
 14 43  1  0  0  0
 44 45  1  0  0  0
 44 46  1  0  0  0
M  CHG  1  44   1
M  END
> <energy>
30.8279

> <chiral flag>
0

> <version>
0

> <i_ionizer_Ion_state_n>
1

> <i_ionizer_Tot_Q>
1

> <s_ionizer_Ion_centers>
44

> <s_ionizer_Ion_types>
N5

> <s_ionizer_Ion_ctrs_in>
9

> <r_ionizer_Ionization_penalty>
0.000148807

> <r_ionizer_Ionization_penalty_charging>
0.000148807

> <r_ionizer_Ionization_penalty_neutral>
0

$$$$
ZINC001258433285
                    3D
 Structure written by MMmdl.
 46 46  0  0  1  0            999 V2000
   -3.9710    2.2992   -0.8331 C   0  0  0  0  0  0
   -3.9384    1.8849    0.6299 C   0  0  0  0  0  0
   -3.5486    0.4243    0.8597 C   0  0  0  0  0  0
   -2.1182    0.0765    0.4247 C   0  0  0  0  0  0
   -1.7618   -1.3585    0.8428 C   0  0  0  0  0  0
   -0.6823   -2.0924    0.0119 C   0  0  1  0  0  0
   -1.0020   -2.2240   -1.4947 C   0  0  0  0  0  0
   -2.3611   -2.8564   -1.7777 C   0  0  0  0  0  0
    1.0869   -0.3316   -0.2082 C   0  0  0  0  0  0
    2.6083   -0.2467   -0.3732 C   0  0  2  0  0  0
    3.4768   -0.2248    0.8944 C   0  0  0  0  0  0
    4.0116    1.1113    0.3430 C   0  0  0  0  0  0
    5.4086    1.0820   -0.2648 C   0  0  0  0  0  0
    3.7989    2.3052    1.2617 C   0  0  0  0  0  0
    3.0138    1.1107   -0.7115 O   0  0  0  0  0  0
   -4.6022    1.6309   -1.4230 H   0  0  0  0  0  0
   -2.9680    2.3051   -1.2691 H   0  0  0  0  0  0
   -4.3742    3.3131   -0.9266 H   0  0  0  0  0  0
   -4.9377    2.0434    1.0540 H   0  0  0  0  0  0
   -3.2565    2.5391    1.1810 H   0  0  0  0  0  0
   -4.2547   -0.2231    0.3233 H   0  0  0  0  0  0
   -3.6663    0.1977    1.9271 H   0  0  0  0  0  0
   -1.4176    0.7761    0.8921 H   0  0  0  0  0  0
   -2.0360    0.1956   -0.6586 H   0  0  0  0  0  0
   -2.6712   -1.9759    0.8147 H   0  0  0  0  0  0
   -1.4607   -1.3519    1.8994 H   0  0  0  0  0  0
   -0.6992   -3.1219    0.3922 H   0  0  0  0  0  0
   -0.9705   -1.2550   -1.9978 H   0  0  0  0  0  0
   -0.2318   -2.8459   -1.9691 H   0  0  0  0  0  0
   -3.1825   -2.2223   -1.4280 H   0  0  0  0  0  0
   -2.4485   -3.8342   -1.2950 H   0  0  0  0  0  0
   -2.4936   -2.9981   -2.8557 H   0  0  0  0  0  0
    0.7551    0.4252    0.5091 H   0  0  0  0  0  0
    0.6340   -0.0917   -1.1715 H   0  0  0  0  0  0
    2.9756   -0.9415   -1.1416 H   0  0  0  0  0  0
    4.2065   -1.0372    0.9731 H   0  0  0  0  0  0
    2.9225   -0.1522    1.8366 H   0  0  0  0  0  0
    6.1732    1.0072    0.5153 H   0  0  0  0  0  0
    5.5983    1.9934   -0.8417 H   0  0  0  0  0  0
    5.5376    0.2321   -0.9445 H   0  0  0  0  0  0
    2.7792    2.3246    1.6630 H   0  0  0  0  0  0
    4.4924    2.2731    2.1086 H   0  0  0  0  0  0
    3.9598    3.2452    0.7218 H   0  0  0  0  0  0
    0.7416   -1.6989    0.2800 N   0  3  0  0  0  0
    0.9019   -1.7314    1.2936 H   0  0  0  0  0  0
    1.3583   -2.3749   -0.1859 H   0  0  0  0  0  0
  1  2  1  0  0  0
  1 16  1  0  0  0
  1 17  1  0  0  0
  1 18  1  0  0  0
  2  3  1  0  0  0
  2 19  1  0  0  0
  2 20  1  0  0  0
  3  4  1  0  0  0
  3 21  1  0  0  0
  3 22  1  0  0  0
  4  5  1  0  0  0
  4 23  1  0  0  0
  4 24  1  0  0  0
  5  6  1  0  0  0
  5 25  1  0  0  0
  5 26  1  0  0  0
  6  7  1  0  0  0
  6 27  1  0  0  0
  6 44  1  0  0  0
  7  8  1  0  0  0
  7 28  1  0  0  0
  7 29  1  0  0  0
  8 30  1  0  0  0
  8 31  1  0  0  0
  8 32  1  0  0  0
  9 10  1  0  0  0
  9 33  1  0  0  0
  9 34  1  0  0  0
  9 44  1  0  0  0
 10 11  1  0  0  0
 10 15  1  0  0  0
 10 35  1  0  0  0
 11 12  1  0  0  0
 11 36  1  0  0  0
 11 37  1  0  0  0
 12 13  1  0  0  0
 12 14  1  0  0  0
 12 15  1  0  0  0
 13 38  1  0  0  0
 13 39  1  0  0  0
 13 40  1  0  0  0
 14 41  1  0  0  0
 14 42  1  0  0  0
 14 43  1  0  0  0
 44 45  1  0  0  0
 44 46  1  0  0  0
M  CHG  1  44   1
M  END
> <energy>
36.4896

> <chiral flag>
0

> <version>
0

> <i_ionizer_Ion_state_n>
1

> <i_ionizer_Tot_Q>
1

> <s_ionizer_Ion_centers>
44

> <s_ionizer_Ion_types>
N5

> <s_ionizer_Ion_ctrs_in>
9

> <r_ionizer_Ionization_penalty>
0.000148807

> <r_ionizer_Ionization_penalty_charging>
0.000148807

> <r_ionizer_Ionization_penalty_neutral>
0

$$$$
ZINC001258433286
                    3D
 Structure written by MMmdl.
 46 46  0  0  1  0            999 V2000
   -1.9428    4.0686    0.5090 C   0  0  0  0  0  0
   -2.0790    3.6284   -0.9420 C   0  0  0  0  0  0
   -2.6418    2.2118   -1.1102 C   0  0  0  0  0  0
   -1.6923    1.1252   -0.6038 C   0  0  0  0  0  0
   -2.2017   -0.2939   -0.9176 C   0  0  0  0  0  0
   -1.4225   -1.4358   -0.2042 C   0  0  2  0  0  0
   -1.7590   -1.4714    1.3087 C   0  0  0  0  0  0
   -2.7307   -2.6000    1.6375 C   0  0  0  0  0  0
    0.8031   -2.4745   -0.1463 C   0  0  0  0  0  0
    2.2994   -2.1844    0.0417 C   0  0  1  0  0  0
    3.0719   -1.3426   -0.9873 C   0  0  0  0  0  0
    3.3785   -0.4105    0.2046 C   0  0  0  0  0  0
    4.8175   -0.4259    0.6983 C   0  0  0  0  0  0
    2.8219    0.9990    0.0658 C   0  0  0  0  0  0
    2.5438   -1.2036    1.0880 O   0  0  0  0  0  0
   -1.2420    3.4362    1.0606 H   0  0  0  0  0  0
   -2.9120    4.0415    1.0185 H   0  0  0  0  0  0
   -1.5642    5.0960    0.5538 H   0  0  0  0  0  0
   -2.7420    4.3335   -1.4578 H   0  0  0  0  0  0
   -1.1001    3.6988   -1.4311 H   0  0  0  0  0  0
   -3.6038    2.1327   -0.5915 H   0  0  0  0  0  0
   -2.8407    2.0501   -2.1750 H   0  0  0  0  0  0
   -1.5482    1.2421    0.4718 H   0  0  0  0  0  0
   -0.7139    1.2643   -1.0754 H   0  0  0  0  0  0
   -2.1475   -0.4519   -2.0049 H   0  0  0  0  0  0
   -3.2651   -0.3735   -0.6552 H   0  0  0  0  0  0
   -1.7407   -2.3745   -0.6785 H   0  0  0  0  0  0
   -0.8615   -1.6076    1.9224 H   0  0  0  0  0  0
   -2.2043   -0.5272    1.6427 H   0  0  0  0  0  0
   -2.2861   -3.5748    1.4097 H   0  0  0  0  0  0
   -2.9831   -2.5881    2.7028 H   0  0  0  0  0  0
   -3.6600   -2.5022    1.0692 H   0  0  0  0  0  0
    0.6739   -3.1944   -0.9629 H   0  0  0  0  0  0
    0.4420   -2.9643    0.7631 H   0  0  0  0  0  0
    2.8228   -3.1176    0.2862 H   0  0  0  0  0  0
    3.9319   -1.8553   -1.4285 H   0  0  0  0  0  0
    2.4772   -0.8980   -1.7902 H   0  0  0  0  0  0
    5.1723   -1.4475    0.8645 H   0  0  0  0  0  0
    5.4873    0.0501   -0.0252 H   0  0  0  0  0  0
    4.9111    0.1142    1.6465 H   0  0  0  0  0  0
    3.3703    1.5593   -0.6987 H   0  0  0  0  0  0
    2.9022    1.5493    1.0088 H   0  0  0  0  0  0
    1.7671    0.9914   -0.2248 H   0  0  0  0  0  0
    0.0289   -1.2436   -0.4539 N   0  3  0  0  0  0
    0.1679   -1.0003   -1.4417 H   0  0  0  0  0  0
    0.3706   -0.4779    0.1386 H   0  0  0  0  0  0
  1  2  1  0  0  0
  1 16  1  0  0  0
  1 17  1  0  0  0
  1 18  1  0  0  0
  2  3  1  0  0  0
  2 19  1  0  0  0
  2 20  1  0  0  0
  3  4  1  0  0  0
  3 21  1  0  0  0
  3 22  1  0  0  0
  4  5  1  0  0  0
  4 23  1  0  0  0
  4 24  1  0  0  0
  5  6  1  0  0  0
  5 25  1  0  0  0
  5 26  1  0  0  0
  6  7  1  0  0  0
  6 27  1  0  0  0
  6 44  1  0  0  0
  7  8  1  0  0  0
  7 28  1  0  0  0
  7 29  1  0  0  0
  8 30  1  0  0  0
  8 31  1  0  0  0
  8 32  1  0  0  0
  9 10  1  0  0  0
  9 33  1  0  0  0
  9 34  1  0  0  0
  9 44  1  0  0  0
 10 11  1  0  0  0
 10 15  1  0  0  0
 10 35  1  0  0  0
 11 12  1  0  0  0
 11 36  1  0  0  0
 11 37  1  0  0  0
 12 13  1  0  0  0
 12 14  1  0  0  0
 12 15  1  0  0  0
 13 38  1  0  0  0
 13 39  1  0  0  0
 13 40  1  0  0  0
 14 41  1  0  0  0
 14 42  1  0  0  0
 14 43  1  0  0  0
 44 45  1  0  0  0
 44 46  1  0  0  0
M  CHG  1  44   1
M  END
> <energy>
38.3024

> <chiral flag>
0

> <version>
0

> <i_ionizer_Ion_state_n>
1

> <i_ionizer_Tot_Q>
1

> <s_ionizer_Ion_centers>
44

> <s_ionizer_Ion_types>
N5

> <s_ionizer_Ion_ctrs_in>
9

> <r_ionizer_Ionization_penalty>
0.000148807

> <r_ionizer_Ionization_penalty_charging>
0.000148807

> <r_ionizer_Ionization_penalty_neutral>
0

$$$$
ZINC001258433287
                    3D
 Structure written by MMmdl.
 46 46  0  0  1  0            999 V2000
   -1.9587    2.7344    1.8922 C   0  0  0  0  0  0
   -1.6664    2.8530    0.4036 C   0  0  0  0  0  0
   -2.6211    2.0309   -0.4686 C   0  0  0  0  0  0
   -2.4518    0.5095   -0.3564 C   0  0  0  0  0  0
   -1.2065   -0.0050   -1.0847 C   0  0  0  0  0  0
   -0.7285   -1.4239   -0.6979 C   0  0  2  0  0  0
   -1.6736   -2.5368   -1.2162 C   0  0  0  0  0  0
   -2.8814   -2.8718   -0.3484 C   0  0  0  0  0  0
    0.4040   -0.6135    1.3741 C   0  0  0  0  0  0
    1.9159   -0.7664    1.1589 C   0  0  2  0  0  0
    2.6898    0.5529    0.9999 C   0  0  0  0  0  0
    3.2482   -0.0859   -0.2862 C   0  0  0  0  0  0
    4.6833   -0.5887   -0.1711 C   0  0  0  0  0  0
    2.9920    0.6804   -1.5746 C   0  0  0  0  0  0
    2.3073   -1.1874   -0.1773 O   0  0  0  0  0  0
   -1.2771    3.3705    2.4622 H   0  0  0  0  0  0
   -1.8326    1.7090    2.2516 H   0  0  0  0  0  0
   -2.9830    3.0520    2.1160 H   0  0  0  0  0  0
   -0.6260    2.5708    0.2138 H   0  0  0  0  0  0
   -1.7557    3.9083    0.1170 H   0  0  0  0  0  0
   -2.4923    2.3269   -1.5168 H   0  0  0  0  0  0
   -3.6532    2.2887   -0.1949 H   0  0  0  0  0  0
   -3.3328    0.0502   -0.8178 H   0  0  0  0  0  0
   -2.4555    0.2085    0.6946 H   0  0  0  0  0  0
   -0.3729    0.6862   -0.9387 H   0  0  0  0  0  0
   -1.3988    0.0219   -2.1647 H   0  0  0  0  0  0
    0.2044   -1.5753   -1.2553 H   0  0  0  0  0  0
   -1.0879   -3.4580   -1.3344 H   0  0  0  0  0  0
   -2.0231   -2.2774   -2.2221 H   0  0  0  0  0  0
   -3.4635   -3.6765   -0.8135 H   0  0  0  0  0  0
   -2.5779   -3.2232    0.6434 H   0  0  0  0  0  0
   -3.5500   -2.0199   -0.2206 H   0  0  0  0  0  0
    0.0737    0.3942    1.1164 H   0  0  0  0  0  0
    0.2183   -0.6865    2.4527 H   0  0  0  0  0  0
    2.3538   -1.4515    1.8972 H   0  0  0  0  0  0
    2.0734    1.4431    0.8381 H   0  0  0  0  0  0
    3.4095    0.7607    1.7950 H   0  0  0  0  0  0
    4.9470   -1.2244   -1.0220 H   0  0  0  0  0  0
    4.8347   -1.1765    0.7433 H   0  0  0  0  0  0
    5.3910    0.2466   -0.1454 H   0  0  0  0  0  0
    3.5171    1.6407   -1.5754 H   0  0  0  0  0  0
    1.9242    0.8816   -1.7117 H   0  0  0  0  0  0
    3.3292    0.1067   -2.4432 H   0  0  0  0  0  0
   -0.4549   -1.6679    0.7574 N   0  3  0  0  0  0
   -1.3505   -1.6950    1.2588 H   0  0  0  0  0  0
    0.0189   -2.5737    0.8540 H   0  0  0  0  0  0
  1  2  1  0  0  0
  1 16  1  0  0  0
  1 17  1  0  0  0
  1 18  1  0  0  0
  2  3  1  0  0  0
  2 19  1  0  0  0
  2 20  1  0  0  0
  3  4  1  0  0  0
  3 21  1  0  0  0
  3 22  1  0  0  0
  4  5  1  0  0  0
  4 23  1  0  0  0
  4 24  1  0  0  0
  5  6  1  0  0  0
  5 25  1  0  0  0
  5 26  1  0  0  0
  6  7  1  0  0  0
  6 27  1  0  0  0
  6 44  1  0  0  0
  7  8  1  0  0  0
  7 28  1  0  0  0
  7 29  1  0  0  0
  8 30  1  0  0  0
  8 31  1  0  0  0
  8 32  1  0  0  0
  9 10  1  0  0  0
  9 33  1  0  0  0
  9 34  1  0  0  0
  9 44  1  0  0  0
 10 11  1  0  0  0
 10 15  1  0  0  0
 10 35  1  0  0  0
 11 12  1  0  0  0
 11 36  1  0  0  0
 11 37  1  0  0  0
 12 13  1  0  0  0
 12 14  1  0  0  0
 12 15  1  0  0  0
 13 38  1  0  0  0
 13 39  1  0  0  0
 13 40  1  0  0  0
 14 41  1  0  0  0
 14 42  1  0  0  0
 14 43  1  0  0  0
 44 45  1  0  0  0
 44 46  1  0  0  0
M  CHG  1  44   1
M  END
> <energy>
39.525

> <chiral flag>
0

> <version>
0

> <i_ionizer_Ion_state_n>
1

> <i_ionizer_Tot_Q>
1

> <s_ionizer_Ion_centers>
44

> <s_ionizer_Ion_types>
N5

> <s_ionizer_Ion_ctrs_in>
9

> <r_ionizer_Ionization_penalty>
0.000148807

> <r_ionizer_Ionization_penalty_charging>
0.000148807

> <r_ionizer_Ionization_penalty_neutral>
0

$$$$
ZINC001258433310
                    3D
 Structure written by MMmdl.
 46 46  0  0  1  0            999 V2000
   -4.5798    1.8313    1.8477 C   0  0  0  0  0  0
   -4.3969    1.2340    0.4591 C   0  0  0  0  0  0
   -3.3027    0.1634    0.3982 C   0  0  0  0  0  0
   -1.8972    0.7424    0.5718 C   0  0  0  0  0  0
   -0.7794   -0.3064    0.5788 C   0  0  0  0  0  0
   -0.6138   -1.0602   -0.7647 C   0  0  2  0  0  0
   -1.1342   -2.5077   -0.6074 C   0  0  0  0  0  0
   -1.2036   -3.2857   -1.9165 C   0  0  0  0  0  0
    1.2398    0.1878   -1.7579 C   0  0  0  0  0  0
    2.7715    0.3132   -1.7877 C   0  0  0  0  0  0
    3.3768    0.4803   -0.4112 C   0  0  0  0  0  0
    4.0378   -0.5966    0.1980 C   0  0  0  0  0  0
    4.5624   -0.4740    1.4865 C   0  0  0  0  0  0
    4.4299    0.7260    2.1827 C   0  0  0  0  0  0
    3.7734    1.8059    1.5915 C   0  0  0  0  0  0
    3.2560    1.6782    0.3018 C   0  0  0  0  0  0
    2.6179    2.7349   -0.2891 O   0  0  0  0  0  0
   -3.6962    2.3915    2.1663 H   0  0  0  0  0  0
   -5.4280    2.5247    1.8516 H   0  0  0  0  0  0
   -4.7792    1.0493    2.5882 H   0  0  0  0  0  0
   -5.3467    0.7799    0.1526 H   0  0  0  0  0  0
   -4.1798    2.0343   -0.2579 H   0  0  0  0  0  0
   -3.4894   -0.5984    1.1632 H   0  0  0  0  0  0
   -3.3755   -0.3350   -0.5742 H   0  0  0  0  0  0
   -1.8399    1.2887    1.5195 H   0  0  0  0  0  0
   -1.7018    1.4727   -0.2216 H   0  0  0  0  0  0
    0.1452    0.2243    0.8384 H   0  0  0  0  0  0
   -0.9434   -1.0090    1.4055 H   0  0  0  0  0  0
   -1.1948   -0.5728   -1.5592 H   0  0  0  0  0  0
   -2.1437   -2.4854   -0.1793 H   0  0  0  0  0  0
   -0.5062   -3.0606    0.1033 H   0  0  0  0  0  0
   -0.2155   -3.4323   -2.3625 H   0  0  0  0  0  0
   -1.6312   -4.2788   -1.7370 H   0  0  0  0  0  0
   -1.8400   -2.7680   -2.6418 H   0  0  0  0  0  0
    0.8096    1.0505   -1.2375 H   0  0  0  0  0  0
    0.8631    0.2181   -2.7878 H   0  0  0  0  0  0
    3.2091   -0.5591   -2.2892 H   0  0  0  0  0  0
    3.0552    1.1755   -2.4036 H   0  0  0  0  0  0
    4.1306   -1.5453   -0.3254 H   0  0  0  0  0  0
    5.0662   -1.3186    1.9473 H   0  0  0  0  0  0
    4.8351    0.8153    3.1866 H   0  0  0  0  0  0
    3.6704    2.7294    2.1503 H   0  0  0  0  0  0
    2.5528    3.4549    0.3564 H   0  0  0  0  0  0
    0.8206   -1.0943   -1.1378 N   0  3  0  0  0  0
    1.3830   -1.2593   -0.2947 H   0  0  0  0  0  0
    0.9754   -1.8574   -1.8071 H   0  0  0  0  0  0
  1  2  1  0  0  0
  1 18  1  0  0  0
  1 19  1  0  0  0
  1 20  1  0  0  0
  2  3  1  0  0  0
  2 21  1  0  0  0
  2 22  1  0  0  0
  3  4  1  0  0  0
  3 23  1  0  0  0
  3 24  1  0  0  0
  4  5  1  0  0  0
  4 25  1  0  0  0
  4 26  1  0  0  0
  5  6  1  0  0  0
  5 27  1  0  0  0
  5 28  1  0  0  0
  6  7  1  0  0  0
  6 29  1  0  0  0
  6 44  1  0  0  0
  7  8  1  0  0  0
  7 30  1  0  0  0
  7 31  1  0  0  0
  8 32  1  0  0  0
  8 33  1  0  0  0
  8 34  1  0  0  0
  9 10  1  0  0  0
  9 35  1  0  0  0
  9 36  1  0  0  0
  9 44  1  0  0  0
 10 11  1  0  0  0
 10 37  1  0  0  0
 10 38  1  0  0  0
 11 12  2  0  0  0
 11 16  1  0  0  0
 12 13  1  0  0  0
 12 39  1  0  0  0
 13 14  2  0  0  0
 13 40  1  0  0  0
 14 15  1  0  0  0
 14 41  1  0  0  0
 15 16  2  0  0  0
 15 42  1  0  0  0
 16 17  1  0  0  0
 17 43  1  0  0  0
 44 45  1  0  0  0
 44 46  1  0  0  0
M  CHG  1  44   1
M  END
> <energy>
25.451

> <chiral flag>
0

> <version>
0

> <i_ionizer_Ion_state_n>
1

> <i_ionizer_Tot_Q>
1

> <s_ionizer_Ion_centers>
44

> <s_ionizer_Ion_types>
N5

> <s_ionizer_Ion_ctrs_in>
9

> <r_ionizer_Ionization_penalty>
0.0016352

> <r_ionizer_Ionization_penalty_charging>
0.000148807

> <r_ionizer_Ionization_penalty_neutral>
0.00148639

$$$$
ZINC001258433311
                    3D
 Structure written by MMmdl.
 46 46  0  0  1  0            999 V2000
    3.8628   -0.7359   -0.3726 C   0  0  0  0  0  0
    3.6844   -1.2715    1.0409 C   0  0  0  0  0  0
    2.2130   -1.4831    1.4127 C   0  0  0  0  0  0
    1.5761   -2.6909    0.7104 C   0  0  0  0  0  0
    0.0441   -2.7348    0.8556 C   0  0  0  0  0  0
   -0.7441   -2.1323   -0.3395 C   0  0  1  0  0  0
   -2.2638   -2.3531   -0.1504 C   0  0  0  0  0  0
   -2.8927   -1.6042    1.0184 C   0  0  0  0  0  0
   -1.0938   -0.0126   -1.5758 C   0  0  0  0  0  0
   -0.4959    1.3855   -1.8546 C   0  0  0  0  0  0
   -0.8059    2.4801   -0.8483 C   0  0  0  0  0  0
   -0.7867    2.2204    0.5331 C   0  0  0  0  0  0
   -1.0950    3.2155    1.4665 C   0  0  0  0  0  0
   -1.4210    4.4964    1.0375 C   0  0  0  0  0  0
   -1.4207    4.7860   -0.3224 C   0  0  0  0  0  0
   -1.0940    3.7945   -1.2482 C   0  0  0  0  0  0
   -1.0699    4.1921   -2.5564 O   0  0  0  0  0  0
    3.2823    0.1801   -0.5208 H   0  0  0  0  0  0
    4.9157   -0.5024   -0.5566 H   0  0  0  0  0  0
    3.5488   -1.4640   -1.1246 H   0  0  0  0  0  0
    4.1195   -0.5481    1.7417 H   0  0  0  0  0  0
    4.2447   -2.2074    1.1590 H   0  0  0  0  0  0
    1.6579   -0.5623    1.2103 H   0  0  0  0  0  0
    2.1486   -1.6394    2.4963 H   0  0  0  0  0  0
    1.8516   -2.7384   -0.3476 H   0  0  0  0  0  0
    1.9928   -3.5956    1.1723 H   0  0  0  0  0  0
   -0.2468   -3.7895    0.9436 H   0  0  0  0  0  0
   -0.2466   -2.2530    1.7969 H   0  0  0  0  0  0
   -0.4511   -2.6955   -1.2346 H   0  0  0  0  0  0
   -2.4516   -3.4269   -0.0166 H   0  0  0  0  0  0
   -2.7950   -2.0787   -1.0695 H   0  0  0  0  0  0
   -2.7421   -0.5235    0.9374 H   0  0  0  0  0  0
   -3.9728   -1.7858    1.0397 H   0  0  0  0  0  0
   -2.4859   -1.9370    1.9768 H   0  0  0  0  0  0
   -1.0599   -0.5851   -2.5110 H   0  0  0  0  0  0
   -2.1444    0.1076   -1.2917 H   0  0  0  0  0  0
    0.5930    1.3214   -1.9733 H   0  0  0  0  0  0
   -0.8944    1.6774   -2.8334 H   0  0  0  0  0  0
   -0.5441    1.2325    0.9158 H   0  0  0  0  0  0
   -1.0844    2.9804    2.5270 H   0  0  0  0  0  0
   -1.6644    5.2698    1.7600 H   0  0  0  0  0  0
   -1.6662    5.7868   -0.6668 H   0  0  0  0  0  0
   -0.4027    3.6605   -3.0171 H   0  0  0  0  0  0
   -0.3150   -0.7171   -0.5231 N   0  3  0  0  0  0
   -0.4387   -0.2184    0.3659 H   0  0  0  0  0  0
    0.6774   -0.7063   -0.7863 H   0  0  0  0  0  0
  1  2  1  0  0  0
  1 18  1  0  0  0
  1 19  1  0  0  0
  1 20  1  0  0  0
  2  3  1  0  0  0
  2 21  1  0  0  0
  2 22  1  0  0  0
  3  4  1  0  0  0
  3 23  1  0  0  0
  3 24  1  0  0  0
  4  5  1  0  0  0
  4 25  1  0  0  0
  4 26  1  0  0  0
  5  6  1  0  0  0
  5 27  1  0  0  0
  5 28  1  0  0  0
  6  7  1  0  0  0
  6 29  1  0  0  0
  6 44  1  0  0  0
  7  8  1  0  0  0
  7 30  1  0  0  0
  7 31  1  0  0  0
  8 32  1  0  0  0
  8 33  1  0  0  0
  8 34  1  0  0  0
  9 10  1  0  0  0
  9 35  1  0  0  0
  9 36  1  0  0  0
  9 44  1  0  0  0
 10 11  1  0  0  0
 10 37  1  0  0  0
 10 38  1  0  0  0
 11 12  2  0  0  0
 11 16  1  0  0  0
 12 13  1  0  0  0
 12 39  1  0  0  0
 13 14  2  0  0  0
 13 40  1  0  0  0
 14 15  1  0  0  0
 14 41  1  0  0  0
 15 16  2  0  0  0
 15 42  1  0  0  0
 16 17  1  0  0  0
 17 43  1  0  0  0
 44 45  1  0  0  0
 44 46  1  0  0  0
M  CHG  1  44   1
M  END
> <energy>
27.0363

> <chiral flag>
0

> <version>
0

> <i_ionizer_Ion_state_n>
1

> <i_ionizer_Tot_Q>
1

> <s_ionizer_Ion_centers>
44

> <s_ionizer_Ion_types>
N5

> <s_ionizer_Ion_ctrs_in>
9

> <r_ionizer_Ionization_penalty>
0.0016352

> <r_ionizer_Ionization_penalty_charging>
0.000148807

> <r_ionizer_Ionization_penalty_neutral>
0.00148639

$$$$
ZINC001258433380
                    3D
 Structure written by MMmdl.
 47 47  0  0  1  0            999 V2000
   -2.6138    0.3910   -2.7902 C   0  0  0  0  0  0
   -2.7082   -1.1224   -2.9024 C   0  0  0  0  0  0
   -2.6542   -1.8378   -1.5496 C   0  0  0  0  0  0
   -1.3468   -1.6131   -0.7803 C   0  0  0  0  0  0
   -1.3354   -2.4479    0.5035 C   0  0  0  0  0  0
   -0.2252   -2.1647    1.5440 C   0  0  2  0  0  0
   -0.5448   -1.0585    2.5754 C   0  0  0  0  0  0
   -1.0742    0.2626    2.0475 C   0  0  0  0  0  0
    1.6900   -1.0108    0.3608 C   0  0  0  0  0  0
    2.5729   -0.1826    1.3050 C   0  0  0  0  0  0
    3.3358    0.9364    0.5852 C   0  0  0  0  0  0
    2.4671    2.0331    0.0387 C   0  0  0  0  0  0
    1.6815    2.8394    0.8677 C   0  0  0  0  0  0
    0.8825    3.8335    0.3094 C   0  0  0  0  0  0
    0.9009    3.9929   -1.0657 C   0  0  0  0  0  0
    1.6580    3.2503   -1.8982 N   0  0  0  0  0  0
    2.4231    2.2922   -1.3299 C   0  0  0  0  0  0
   -2.8228    0.8518   -3.7595 H   0  0  0  0  0  0
   -1.6113    0.7059   -2.4832 H   0  0  0  0  0  0
   -3.3352    0.7814   -2.0654 H   0  0  0  0  0  0
   -1.9082   -1.4926   -3.5525 H   0  0  0  0  0  0
   -3.6582   -1.3799   -3.3846 H   0  0  0  0  0  0
   -3.4970   -1.5035   -0.9324 H   0  0  0  0  0  0
   -2.7949   -2.9123   -1.7209 H   0  0  0  0  0  0
   -1.2457   -0.5499   -0.5484 H   0  0  0  0  0  0
   -0.4999   -1.8973   -1.4175 H   0  0  0  0  0  0
   -2.3077   -2.3592    1.0042 H   0  0  0  0  0  0
   -1.2534   -3.5032    0.2029 H   0  0  0  0  0  0
   -0.2481   -3.0744    2.1635 H   0  0  0  0  0  0
   -1.2972   -1.4507    3.2748 H   0  0  0  0  0  0
    0.3380   -0.8738    3.1966 H   0  0  0  0  0  0
   -1.1516    0.9840    2.8685 H   0  0  0  0  0  0
   -2.0776    0.1438    1.6269 H   0  0  0  0  0  0
   -0.4273    0.6959    1.2856 H   0  0  0  0  0  0
    2.3216   -1.3655   -0.4633 H   0  0  0  0  0  0
    0.9246   -0.3886   -0.1021 H   0  0  0  0  0  0
    1.9736    0.2402    2.1178 H   0  0  0  0  0  0
    3.3132   -0.8410    1.7756 H   0  0  0  0  0  0
    3.9437    0.5018   -0.2173 H   0  0  0  0  0  0
    4.0511    1.3892    1.2831 H   0  0  0  0  0  0
    1.6833    2.6954    1.9446 H   0  0  0  0  0  0
    0.2573    4.4640    0.9327 H   0  0  0  0  0  0
    0.2875    4.7498   -1.5477 H   0  0  0  0  0  0
    3.0205    1.7206   -2.0311 H   0  0  0  0  0  0
    1.1771   -2.2624    1.0050 N   0  3  0  0  0  0
    1.8029   -2.5007    1.7834 H   0  0  0  0  0  0
    1.1992   -3.0139    0.3057 H   0  0  0  0  0  0
  1  2  1  0  0  0
  1 18  1  0  0  0
  1 19  1  0  0  0
  1 20  1  0  0  0
  2  3  1  0  0  0
  2 21  1  0  0  0
  2 22  1  0  0  0
  3  4  1  0  0  0
  3 23  1  0  0  0
  3 24  1  0  0  0
  4  5  1  0  0  0
  4 25  1  0  0  0
  4 26  1  0  0  0
  5  6  1  0  0  0
  5 27  1  0  0  0
  5 28  1  0  0  0
  6  7  1  0  0  0
  6 29  1  0  0  0
  6 45  1  0  0  0
  7  8  1  0  0  0
  7 30  1  0  0  0
  7 31  1  0  0  0
  8 32  1  0  0  0
  8 33  1  0  0  0
  8 34  1  0  0  0
  9 10  1  0  0  0
  9 35  1  0  0  0
  9 36  1  0  0  0
  9 45  1  0  0  0
 10 11  1  0  0  0
 10 37  1  0  0  0
 10 38  1  0  0  0
 11 12  1  0  0  0
 11 39  1  0  0  0
 11 40  1  0  0  0
 12 13  2  0  0  0
 12 17  1  0  0  0
 13 14  1  0  0  0
 13 41  1  0  0  0
 14 15  2  0  0  0
 14 42  1  0  0  0
 15 16  1  0  0  0
 15 43  1  0  0  0
 16 17  2  0  0  0
 17 44  1  0  0  0
 45 46  1  0  0  0
 45 47  1  0  0  0
M  CHG  1  45   1
M  END
> <energy>
29.2781

> <chiral flag>
0

> <version>
0

> <i_ionizer_Ion_state_n>
1

> <i_ionizer_Tot_Q>
1

> <s_ionizer_Ion_centers>
45

> <s_ionizer_Ion_types>
N5

> <s_ionizer_Ion_ctrs_in>
9

> <r_ionizer_Ionization_penalty>
0.0075612

> <r_ionizer_Ionization_penalty_charging>
0.000148807

> <r_ionizer_Ionization_penalty_neutral>
0.00741239

$$$$
ZINC001258433381
                    3D
 Structure written by MMmdl.
 47 47  0  0  1  0            999 V2000
   -5.4475    1.5976    1.6113 C   0  0  0  0  0  0
   -3.9838    1.2508    1.3793 C   0  0  0  0  0  0
   -3.8257   -0.0841    0.6464 C   0  0  0  0  0  0
   -2.3499   -0.4022    0.3861 C   0  0  0  0  0  0
   -2.1674   -1.7696   -0.3022 C   0  0  0  0  0  0
   -0.7489   -2.0604   -0.8631 C   0  0  1  0  0  0
   -0.5733   -1.5527   -2.3163 C   0  0  0  0  0  0
   -0.6583   -0.0504   -2.5267 C   0  0  0  0  0  0
    1.6472   -1.7020   -0.3279 C   0  0  0  0  0  0
    2.5577   -1.3484    0.8593 C   0  0  0  0  0  0
    3.9201   -0.7855    0.4274 C   0  0  0  0  0  0
    3.9964    0.7233    0.4018 C   0  0  0  0  0  0
    2.9800    1.5337   -0.1120 C   0  0  0  0  0  0
    3.1234    2.9177   -0.1208 C   0  0  0  0  0  0
    4.2901    3.4621    0.3880 C   0  0  0  0  0  0
    5.2987    2.7213    0.8915 N   0  0  0  0  0  0
    5.1317    1.3786    0.8812 C   0  0  0  0  0  0
   -5.9638    0.7975    2.1493 H   0  0  0  0  0  0
   -5.9685    1.7626    0.6635 H   0  0  0  0  0  0
   -5.5282    2.5146    2.2061 H   0  0  0  0  0  0
   -3.5133    2.0556    0.8003 H   0  0  0  0  0  0
   -3.4711    1.2042    2.3478 H   0  0  0  0  0  0
   -4.3659   -0.0450   -0.3079 H   0  0  0  0  0  0
   -4.2786   -0.8879    1.2404 H   0  0  0  0  0  0
   -1.8140   -0.4030    1.3435 H   0  0  0  0  0  0
   -1.9155    0.4035   -0.2100 H   0  0  0  0  0  0
   -2.4076   -2.5440    0.4397 H   0  0  0  0  0  0
   -2.9017   -1.8838   -1.1085 H   0  0  0  0  0  0
   -0.6665   -3.1547   -0.9322 H   0  0  0  0  0  0
   -1.3325   -2.0326   -2.9487 H   0  0  0  0  0  0
    0.3886   -1.9052   -2.7081 H   0  0  0  0  0  0
   -0.0322    0.4997   -1.8203 H   0  0  0  0  0  0
   -0.3215    0.2008   -3.5372 H   0  0  0  0  0  0
   -1.6894    0.3031   -2.4353 H   0  0  0  0  0  0
    1.8218   -1.0136   -1.1591 H   0  0  0  0  0  0
    1.8868   -2.7144   -0.6771 H   0  0  0  0  0  0
    2.0670   -0.6512    1.5533 H   0  0  0  0  0  0
    2.7270   -2.2740    1.4250 H   0  0  0  0  0  0
    4.6615   -1.1519    1.1510 H   0  0  0  0  0  0
    4.2213   -1.1774   -0.5533 H   0  0  0  0  0  0
    2.0576    1.1085   -0.4957 H   0  0  0  0  0  0
    2.3419    3.5581   -0.5168 H   0  0  0  0  0  0
    4.4453    4.5365    0.4075 H   0  0  0  0  0  0
    5.9695    0.8255    1.2968 H   0  0  0  0  0  0
    0.2465   -1.6021    0.1501 N   0  3  0  0  0  0
    0.0493   -0.6217    0.3826 H   0  0  0  0  0  0
    0.1463   -2.1805    0.9925 H   0  0  0  0  0  0
  1  2  1  0  0  0
  1 18  1  0  0  0
  1 19  1  0  0  0
  1 20  1  0  0  0
  2  3  1  0  0  0
  2 21  1  0  0  0
  2 22  1  0  0  0
  3  4  1  0  0  0
  3 23  1  0  0  0
  3 24  1  0  0  0
  4  5  1  0  0  0
  4 25  1  0  0  0
  4 26  1  0  0  0
  5  6  1  0  0  0
  5 27  1  0  0  0
  5 28  1  0  0  0
  6  7  1  0  0  0
  6 29  1  0  0  0
  6 45  1  0  0  0
  7  8  1  0  0  0
  7 30  1  0  0  0
  7 31  1  0  0  0
  8 32  1  0  0  0
  8 33  1  0  0  0
  8 34  1  0  0  0
  9 10  1  0  0  0
  9 35  1  0  0  0
  9 36  1  0  0  0
  9 45  1  0  0  0
 10 11  1  0  0  0
 10 37  1  0  0  0
 10 38  1  0  0  0
 11 12  1  0  0  0
 11 39  1  0  0  0
 11 40  1  0  0  0
 12 13  2  0  0  0
 12 17  1  0  0  0
 13 14  1  0  0  0
 13 41  1  0  0  0
 14 15  2  0  0  0
 14 42  1  0  0  0
 15 16  1  0  0  0
 15 43  1  0  0  0
 16 17  2  0  0  0
 17 44  1  0  0  0
 45 46  1  0  0  0
 45 47  1  0  0  0
M  CHG  1  45   1
M  END
> <energy>
24.4037

> <chiral flag>
0

> <version>
0

> <i_ionizer_Ion_state_n>
1

> <i_ionizer_Tot_Q>
1

> <s_ionizer_Ion_centers>
45

> <s_ionizer_Ion_types>
N5

> <s_ionizer_Ion_ctrs_in>
9

> <r_ionizer_Ionization_penalty>
0.0075612

> <r_ionizer_Ionization_penalty_charging>
0.000148807

> <r_ionizer_Ionization_penalty_neutral>
0.00741239

$$$$
ZINC001258433418
                    3D
 Structure written by MMmdl.
 41 41  0  0  1  0            999 V2000
   -5.2400    1.2612   -1.4029 C   0  0  0  0  0  0
   -3.7600    1.2612   -1.0374 C   0  0  0  0  0  0
   -3.2479   -0.1428   -0.6987 C   0  0  0  0  0  0
   -1.7945   -0.0990   -0.2225 C   0  0  0  0  0  0
   -1.3357   -1.4513    0.3577 C   0  0  0  0  0  0
    0.1931   -1.5627    0.6341 C   0  0  1  0  0  0
    1.0032   -1.6631   -0.6804 C   0  0  0  0  0  0
    0.8134   -3.0134   -1.3690 C   0  0  0  0  0  0
    1.9726   -0.3889    1.9391 C   0  0  0  0  0  0
    2.7644    0.7682    1.3451 C   0  0  0  0  0  0
    4.0939    0.5902    0.9495 C   0  0  0  0  0  0
    4.7972    1.6746    0.4300 C   0  0  0  0  0  0
    4.1659    2.9038    0.3214 C   0  0  0  0  0  0
    2.8573    3.0033    0.7553 C   0  0  0  0  0  0
    2.2471    4.1917    0.6596 F   0  0  0  0  0  0
    2.1548    1.9798    1.2766 N   0  0  0  0  0  0
   -5.4313    0.6481   -2.2906 H   0  0  0  0  0  0
   -5.5713    2.2831   -1.6171 H   0  0  0  0  0  0
   -5.8511    0.8746   -0.5796 H   0  0  0  0  0  0
   -3.1856    1.6803   -1.8729 H   0  0  0  0  0  0
   -3.6182    1.9286   -0.1793 H   0  0  0  0  0  0
   -3.3252   -0.7824   -1.5878 H   0  0  0  0  0  0
   -3.8819   -0.5872    0.0795 H   0  0  0  0  0  0
   -1.1594    0.1969   -1.0629 H   0  0  0  0  0  0
   -1.6850    0.6754    0.5469 H   0  0  0  0  0  0
   -1.8742   -1.6127    1.3025 H   0  0  0  0  0  0
   -1.6614   -2.2619   -0.3043 H   0  0  0  0  0  0
    0.3497   -2.4835    1.2127 H   0  0  0  0  0  0
    2.0750   -1.5534   -0.4832 H   0  0  0  0  0  0
    0.7331   -0.8611   -1.3791 H   0  0  0  0  0  0
   -0.2323   -3.2121   -1.6168 H   0  0  0  0  0  0
    1.1737   -3.8271   -0.7308 H   0  0  0  0  0  0
    1.3853   -3.0459   -2.3022 H   0  0  0  0  0  0
    1.9679   -0.2336    3.0260 H   0  0  0  0  0  0
    2.4873   -1.3434    1.7754 H   0  0  0  0  0  0
    4.5793   -0.3746    1.0425 H   0  0  0  0  0  0
    5.8298    1.5603    0.1100 H   0  0  0  0  0  0
    4.6708    3.7727   -0.0861 H   0  0  0  0  0  0
    0.5493   -0.3883    1.4864 N   0  3  0  0  0  0
    0.3809    0.4683    0.9459 H   0  0  0  0  0  0
   -0.0554   -0.3938    2.3162 H   0  0  0  0  0  0
  1  2  1  0  0  0
  1 17  1  0  0  0
  1 18  1  0  0  0
  1 19  1  0  0  0
  2  3  1  0  0  0
  2 20  1  0  0  0
  2 21  1  0  0  0
  3  4  1  0  0  0
  3 22  1  0  0  0
  3 23  1  0  0  0
  4  5  1  0  0  0
  4 24  1  0  0  0
  4 25  1  0  0  0
  5  6  1  0  0  0
  5 26  1  0  0  0
  5 27  1  0  0  0
  6  7  1  0  0  0
  6 28  1  0  0  0
  6 39  1  0  0  0
  7  8  1  0  0  0
  7 29  1  0  0  0
  7 30  1  0  0  0
  8 31  1  0  0  0
  8 32  1  0  0  0
  8 33  1  0  0  0
  9 10  1  0  0  0
  9 34  1  0  0  0
  9 35  1  0  0  0
  9 39  1  0  0  0
 10 11  2  0  0  0
 10 16  1  0  0  0
 11 12  1  0  0  0
 11 36  1  0  0  0
 12 13  2  0  0  0
 12 37  1  0  0  0
 13 14  1  0  0  0
 13 38  1  0  0  0
 14 15  1  0  0  0
 14 16  2  0  0  0
 39 40  1  0  0  0
 39 41  1  0  0  0
M  CHG  1  39   1
M  END
> <energy>
35.9004

> <chiral flag>
0

> <version>
0

> <i_ionizer_Ion_state_n>
1

> <i_ionizer_Tot_Q>
1

> <s_ionizer_Ion_centers>
39

> <s_ionizer_Ion_types>
N5

> <s_ionizer_Ion_ctrs_in>
9

> <r_ionizer_Ionization_penalty>
0.0075612

> <r_ionizer_Ionization_penalty_charging>
0.000148807

> <r_ionizer_Ionization_penalty_neutral>
0.00741239

$$$$
ZINC001258433419
                    3D
 Structure written by MMmdl.
 41 41  0  0  1  0            999 V2000
    3.6249    0.6429    1.7577 C   0  0  0  0  0  0
    3.7307   -0.0658    0.4185 C   0  0  0  0  0  0
    3.3020   -1.5389    0.4461 C   0  0  0  0  0  0
    1.8720   -1.8388    0.9219 C   0  0  0  0  0  0
    0.8115   -1.1429    0.0630 C   0  0  0  0  0  0
   -0.6431   -1.3674    0.5326 C   0  0  2  0  0  0
   -1.1602   -2.8095    0.3167 C   0  0  0  0  0  0
   -1.2686   -3.2747   -1.1288 C   0  0  0  0  0  0
   -1.5912    0.8946    0.4894 C   0  0  0  0  0  0
   -2.1014    2.0265   -0.4011 C   0  0  0  0  0  0
   -2.2289    3.3122    0.1321 C   0  0  0  0  0  0
   -2.6567    4.3502   -0.6948 C   0  0  0  0  0  0
   -2.9411    4.0789   -2.0260 C   0  0  0  0  0  0
   -2.7964    2.7776   -2.4732 C   0  0  0  0  0  0
   -3.0573    2.5107   -3.7591 F   0  0  0  0  0  0
   -2.3998    1.7519   -1.6955 N   0  0  0  0  0  0
    2.5813    0.8097    2.0441 H   0  0  0  0  0  0
    4.1167    1.6185    1.6958 H   0  0  0  0  0  0
    4.1130    0.0719    2.5514 H   0  0  0  0  0  0
    3.1561    0.4941   -0.3289 H   0  0  0  0  0  0
    4.7794   -0.0314    0.0925 H   0  0  0  0  0  0
    3.4249   -1.9439   -0.5656 H   0  0  0  0  0  0
    4.0012   -2.0962    1.0830 H   0  0  0  0  0  0
    1.7603   -1.5465    1.9732 H   0  0  0  0  0  0
    1.7261   -2.9258    0.8843 H   0  0  0  0  0  0
    0.9311   -1.4589   -0.9794 H   0  0  0  0  0  0
    1.0203   -0.0660    0.0783 H   0  0  0  0  0  0
   -0.7086   -1.1781    1.6145 H   0  0  0  0  0  0
   -2.1550   -2.8960    0.7760 H   0  0  0  0  0  0
   -0.5245   -3.5105    0.8666 H   0  0  0  0  0  0
   -1.9584   -2.6449   -1.6982 H   0  0  0  0  0  0
   -1.6502   -4.3000   -1.1572 H   0  0  0  0  0  0
   -0.2975   -3.2760   -1.6285 H   0  0  0  0  0  0
   -2.2791    0.7924    1.3376 H   0  0  0  0  0  0
   -0.6159    1.2099    0.8787 H   0  0  0  0  0  0
   -1.9934    3.5144    1.1730 H   0  0  0  0  0  0
   -2.7578    5.3608   -0.3098 H   0  0  0  0  0  0
   -3.2654    4.8524   -2.7132 H   0  0  0  0  0  0
   -1.4938   -0.4105   -0.2120 N   0  3  0  0  0  0
   -1.0885   -0.2590   -1.1432 H   0  0  0  0  0  0
   -2.4357   -0.8077   -0.3092 H   0  0  0  0  0  0
  1  2  1  0  0  0
  1 17  1  0  0  0
  1 18  1  0  0  0
  1 19  1  0  0  0
  2  3  1  0  0  0
  2 20  1  0  0  0
  2 21  1  0  0  0
  3  4  1  0  0  0
  3 22  1  0  0  0
  3 23  1  0  0  0
  4  5  1  0  0  0
  4 24  1  0  0  0
  4 25  1  0  0  0
  5  6  1  0  0  0
  5 26  1  0  0  0
  5 27  1  0  0  0
  6  7  1  0  0  0
  6 28  1  0  0  0
  6 39  1  0  0  0
  7  8  1  0  0  0
  7 29  1  0  0  0
  7 30  1  0  0  0
  8 31  1  0  0  0
  8 32  1  0  0  0
  8 33  1  0  0  0
  9 10  1  0  0  0
  9 34  1  0  0  0
  9 35  1  0  0  0
  9 39  1  0  0  0
 10 11  2  0  0  0
 10 16  1  0  0  0
 11 12  1  0  0  0
 11 36  1  0  0  0
 12 13  2  0  0  0
 12 37  1  0  0  0
 13 14  1  0  0  0
 13 38  1  0  0  0
 14 15  1  0  0  0
 14 16  2  0  0  0
 39 40  1  0  0  0
 39 41  1  0  0  0
M  CHG  1  39   1
M  END
> <energy>
33.8342

> <chiral flag>
0

> <version>
0

> <i_ionizer_Ion_state_n>
1

> <i_ionizer_Tot_Q>
1

> <s_ionizer_Ion_centers>
39

> <s_ionizer_Ion_types>
N5

> <s_ionizer_Ion_ctrs_in>
9

> <r_ionizer_Ionization_penalty>
0.0075612

> <r_ionizer_Ionization_penalty_charging>
0.000148807

> <r_ionizer_Ionization_penalty_neutral>
0.00741239

$$$$
ZINC001258433691
                    3D
 Structure written by MMmdl.
 48 47  0  0  1  0            999 V2000
   -4.7021    1.3549    1.1188 C   0  0  0  0  0  0
   -4.5757    0.0901    0.2770 C   0  0  0  0  0  0
   -3.2224   -0.6102    0.4469 C   0  0  0  0  0  0
   -2.0660    0.0956   -0.2748 C   0  0  0  0  0  0
   -0.7192   -0.5756    0.0573 C   0  0  0  0  0  0
    0.4862    0.0134   -0.7188 C   0  0  2  0  0  0
    0.4613   -0.3491   -2.2238 C   0  0  0  0  0  0
    1.4719    0.4424   -3.0540 C   0  0  0  0  0  0
    2.0357   -1.5104    0.6383 C   0  0  0  0  0  0
    2.3186   -2.7879   -0.1668 C   0  0  0  0  0  0
    1.1070   -3.6627   -0.4408 C   0  0  0  0  0  0
    2.4764    0.8811    0.4286 C   0  0  0  0  0  0
    1.8523    1.4012    1.7369 C   0  0  0  0  0  0
    2.5313    2.5660    2.2173 O   0  0  0  0  0  0
    2.1102    3.7556    1.5626 C   0  0  0  0  0  0
   -4.4926    1.1505    2.1738 H   0  0  0  0  0  0
   -5.7211    1.7517    1.0521 H   0  0  0  0  0  0
   -4.0198    2.1375    0.7757 H   0  0  0  0  0  0
   -4.7540    0.3294   -0.7783 H   0  0  0  0  0  0
   -5.3684   -0.6075    0.5803 H   0  0  0  0  0  0
   -3.0000   -0.7158    1.5156 H   0  0  0  0  0  0
   -3.3118   -1.6259    0.0433 H   0  0  0  0  0  0
   -2.2601    0.0765   -1.3520 H   0  0  0  0  0  0
   -2.0210    1.1469    0.0281 H   0  0  0  0  0  0
   -0.7984   -1.6529   -0.1162 H   0  0  0  0  0  0
   -0.5619   -0.4324    1.1340 H   0  0  0  0  0  0
    0.3473    1.1022   -0.6895 H   0  0  0  0  0  0
   -0.5311   -0.1527   -2.6397 H   0  0  0  0  0  0
    0.6497   -1.4153   -2.3726 H   0  0  0  0  0  0
    1.3206    1.5211   -2.9362 H   0  0  0  0  0  0
    1.3554    0.2037   -4.1177 H   0  0  0  0  0  0
    2.5011    0.2018   -2.7682 H   0  0  0  0  0  0
    1.2495   -1.6695    1.3829 H   0  0  0  0  0  0
    2.9476   -1.3632    1.2386 H   0  0  0  0  0  0
    3.0255   -3.3942    0.4160 H   0  0  0  0  0  0
    2.8349   -2.5462   -1.1030 H   0  0  0  0  0  0
    1.4355   -4.6314   -0.8312 H   0  0  0  0  0  0
    0.4383   -3.2264   -1.1840 H   0  0  0  0  0  0
    0.5422   -3.8458    0.4790 H   0  0  0  0  0  0
    3.5424    0.6712    0.6042 H   0  0  0  0  0  0
    2.4983    1.6816   -0.3181 H   0  0  0  0  0  0
    1.9456    0.6432    2.5195 H   0  0  0  0  0  0
    0.7840    1.6198    1.6245 H   0  0  0  0  0  0
    2.3333    3.7236    0.4928 H   0  0  0  0  0  0
    2.6531    4.5971    1.9974 H   0  0  0  0  0  0
    1.0394    3.9192    1.7170 H   0  0  0  0  0  0
    1.9114   -0.2939   -0.2571 N   0  3  2  0  0  0
    2.4720   -0.4754   -1.0980 H   0  0  0  0  0  0
  1  2  1  0  0  0
  1 16  1  0  0  0
  1 17  1  0  0  0
  1 18  1  0  0  0
  2  3  1  0  0  0
  2 19  1  0  0  0
  2 20  1  0  0  0
  3  4  1  0  0  0
  3 21  1  0  0  0
  3 22  1  0  0  0
  4  5  1  0  0  0
  4 23  1  0  0  0
  4 24  1  0  0  0
  5  6  1  0  0  0
  5 25  1  0  0  0
  5 26  1  0  0  0
  6  7  1  0  0  0
  6 27  1  0  0  0
  6 47  1  0  0  0
  7  8  1  0  0  0
  7 28  1  0  0  0
  7 29  1  0  0  0
  8 30  1  0  0  0
  8 31  1  0  0  0
  8 32  1  0  0  0
  9 10  1  0  0  0
  9 33  1  0  0  0
  9 34  1  0  0  0
  9 47  1  0  0  0
 10 11  1  0  0  0
 10 35  1  0  0  0
 10 36  1  0  0  0
 11 37  1  0  0  0
 11 38  1  0  0  0
 11 39  1  0  0  0
 12 13  1  0  0  0
 12 40  1  0  0  0
 12 41  1  0  0  0
 12 47  1  0  0  0
 13 14  1  0  0  0
 13 42  1  0  0  0
 13 43  1  0  0  0
 14 15  1  0  0  0
 15 44  1  0  0  0
 15 45  1  0  0  0
 15 46  1  0  0  0
 47 48  1  0  0  0
M  CHG  1  47   1
M  END
> <energy>
43.2569

> <chiral flag>
0

> <version>
0

> <i_ionizer_Ion_state_n>
1

> <i_ionizer_Tot_Q>
1

> <s_ionizer_Ion_centers>
47

> <s_ionizer_Ion_types>
N5

> <s_ionizer_Ion_ctrs_in>
9

> <r_ionizer_Ionization_penalty>
0.00148639

> <r_ionizer_Ionization_penalty_charging>
0.00148639

> <r_ionizer_Ionization_penalty_neutral>
0

$$$$
ZINC001258433694
                    3D
 Structure written by MMmdl.
 48 47  0  0  1  0            999 V2000
   -4.7553   -1.7067   -0.1058 C   0  0  0  0  0  0
   -3.3286   -1.4692    0.3676 C   0  0  0  0  0  0
   -3.1583   -0.0643    0.9517 C   0  0  0  0  0  0
   -1.8033    0.1650    1.6294 C   0  0  0  0  0  0
   -0.7004    0.7867    0.7561 C   0  0  0  0  0  0
   -0.1336   -0.1389   -0.3552 C   0  0  1  0  0  0
   -0.7214    0.2307   -1.7426 C   0  0  0  0  0  0
   -0.4493   -0.8084   -2.8230 C   0  0  0  0  0  0
    1.9101   -1.5078   -0.4825 C   0  0  0  0  0  0
    2.2980   -2.1357    0.8601 C   0  0  0  0  0  0
    3.4699   -1.4337    1.5323 C   0  0  0  0  0  0
    2.1122    0.8643   -1.0004 C   0  0  0  0  0  0
    1.8862    2.3272   -0.5803 C   0  0  0  0  0  0
    2.3769    2.5454    0.7450 O   0  0  0  0  0  0
    2.1548    3.8794    1.1757 C   0  0  0  0  0  0
   -4.8540   -2.7199   -0.5087 H   0  0  0  0  0  0
   -5.4661   -1.6007    0.7210 H   0  0  0  0  0  0
   -5.0310   -1.0000   -0.8942 H   0  0  0  0  0  0
   -2.6529   -1.6186   -0.4791 H   0  0  0  0  0  0
   -3.0740   -2.2226    1.1209 H   0  0  0  0  0  0
   -3.9358    0.0757    1.7147 H   0  0  0  0  0  0
   -3.3402    0.6962    0.1839 H   0  0  0  0  0  0
   -1.4396   -0.7613    2.0898 H   0  0  0  0  0  0
   -1.9749    0.8646    2.4591 H   0  0  0  0  0  0
   -1.0642    1.7298    0.3312 H   0  0  0  0  0  0
    0.1041    1.0608    1.4523 H   0  0  0  0  0  0
   -0.4904   -1.1469   -0.1076 H   0  0  0  0  0  0
   -1.8066    0.3502   -1.6561 H   0  0  0  0  0  0
   -0.3499    1.2052   -2.0814 H   0  0  0  0  0  0
   -0.9102   -0.4995   -3.7668 H   0  0  0  0  0  0
    0.6209   -0.9385   -3.0053 H   0  0  0  0  0  0
   -0.8757   -1.7789   -2.5475 H   0  0  0  0  0  0
    2.7940   -1.4880   -1.1340 H   0  0  0  0  0  0
    1.2009   -2.1758   -0.9844 H   0  0  0  0  0  0
    1.4378   -2.1337    1.5397 H   0  0  0  0  0  0
    2.5640   -3.1851    0.6920 H   0  0  0  0  0  0
    4.3527   -1.4319    0.8842 H   0  0  0  0  0  0
    3.2261   -0.3962    1.7851 H   0  0  0  0  0  0
    3.7324   -1.9496    2.4604 H   0  0  0  0  0  0
    3.1800    0.6704   -0.8294 H   0  0  0  0  0  0
    1.9545    0.7721   -2.0798 H   0  0  0  0  0  0
    0.8320    2.6086   -0.6462 H   0  0  0  0  0  0
    2.4508    2.9749   -1.2639 H   0  0  0  0  0  0
    2.6864    4.5819    0.5270 H   0  0  0  0  0  0
    1.0849    4.1086    1.1826 H   0  0  0  0  0  0
    2.5417    3.9818    2.1920 H   0  0  0  0  0  0
    1.3801   -0.1663   -0.1749 N   0  3  1  0  0  0
    1.5740    0.0354    0.8130 H   0  0  0  0  0  0
  1  2  1  0  0  0
  1 16  1  0  0  0
  1 17  1  0  0  0
  1 18  1  0  0  0
  2  3  1  0  0  0
  2 19  1  0  0  0
  2 20  1  0  0  0
  3  4  1  0  0  0
  3 21  1  0  0  0
  3 22  1  0  0  0
  4  5  1  0  0  0
  4 23  1  0  0  0
  4 24  1  0  0  0
  5  6  1  0  0  0
  5 25  1  0  0  0
  5 26  1  0  0  0
  6  7  1  0  0  0
  6 27  1  0  0  0
  6 47  1  0  0  0
  7  8  1  0  0  0
  7 28  1  0  0  0
  7 29  1  0  0  0
  8 30  1  0  0  0
  8 31  1  0  0  0
  8 32  1  0  0  0
  9 10  1  0  0  0
  9 33  1  0  0  0
  9 34  1  0  0  0
  9 47  1  0  0  0
 10 11  1  0  0  0
 10 35  1  0  0  0
 10 36  1  0  0  0
 11 37  1  0  0  0
 11 38  1  0  0  0
 11 39  1  0  0  0
 12 13  1  0  0  0
 12 40  1  0  0  0
 12 41  1  0  0  0
 12 47  1  0  0  0
 13 14  1  0  0  0
 13 42  1  0  0  0
 13 43  1  0  0  0
 14 15  1  0  0  0
 15 44  1  0  0  0
 15 45  1  0  0  0
 15 46  1  0  0  0
 47 48  1  0  0  0
M  CHG  1  47   1
M  END
> <energy>
45.9159

> <chiral flag>
0

> <version>
0

> <i_ionizer_Ion_state_n>
1

> <i_ionizer_Tot_Q>
1

> <s_ionizer_Ion_centers>
47

> <s_ionizer_Ion_types>
N5

> <s_ionizer_Ion_ctrs_in>
9

> <r_ionizer_Ionization_penalty>
0.00148639

> <r_ionizer_Ionization_penalty_charging>
0.00148639

> <r_ionizer_Ionization_penalty_neutral>
0

$$$$
ZINC001258433911
                    3D
 Structure written by MMmdl.
 49 49  0  0  1  0            999 V2000
   -5.4200    1.7496   -0.0081 C   0  0  0  0  0  0
   -4.3915    0.8437    0.6531 C   0  0  0  0  0  0
   -3.2836    0.4661   -0.3294 C   0  0  0  0  0  0
   -2.2457   -0.4634    0.3080 C   0  0  0  0  0  0
   -1.1219   -0.7667   -0.6919 C   0  0  0  0  0  0
    0.1576   -1.4271   -0.1297 C   0  0  2  0  0  0
   -0.1491   -2.8763    0.3078 C   0  0  0  0  0  0
    1.1012   -3.6655    0.6801 C   0  0  0  0  0  0
    1.7853    0.2934    0.8406 C   0  0  2  0  0  0
    2.1690    0.6448    2.3070 C   0  0  0  0  0  0
    3.0708   -0.2634    0.1686 C   0  0  0  0  0  0
    3.6774    0.6917   -0.8540 C   0  0  0  0  0  0
    2.6406    1.0561   -1.9053 C   0  0  2  0  0  0
    3.2455    1.8815   -2.8975 O   0  0  0  0  0  0
    1.4357    1.7753   -1.3110 C   0  0  0  0  0  0
    1.2575    1.5996    0.1968 C   0  0  0  0  0  0
   -6.1980    2.0324    0.7077 H   0  0  0  0  0  0
   -4.9553    2.6677   -0.3819 H   0  0  0  0  0  0
   -5.8980    1.2431   -0.8522 H   0  0  0  0  0  0
   -3.9595    1.3583    1.5208 H   0  0  0  0  0  0
   -4.8885   -0.0594    1.0241 H   0  0  0  0  0  0
   -2.7892    1.3836   -0.6766 H   0  0  0  0  0  0
   -3.7203   -0.0160   -1.2119 H   0  0  0  0  0  0
   -2.7250   -1.3978    0.6212 H   0  0  0  0  0  0
   -1.8576    0.0283    1.2047 H   0  0  0  0  0  0
   -0.8481    0.1600   -1.1945 H   0  0  0  0  0  0
   -1.5306   -1.4076   -1.4869 H   0  0  0  0  0  0
    0.8714   -1.4910   -0.9571 H   0  0  0  0  0  0
   -0.8432   -2.8868    1.1572 H   0  0  0  0  0  0
   -0.6515   -3.4074   -0.5097 H   0  0  0  0  0  0
    0.8329   -4.6932    0.9453 H   0  0  0  0  0  0
    1.8012   -3.7008   -0.1602 H   0  0  0  0  0  0
    1.6159   -3.2242    1.5382 H   0  0  0  0  0  0
    1.3287    1.0901    2.8554 H   0  0  0  0  0  0
    2.9992    1.3626    2.3375 H   0  0  0  0  0  0
    2.4913   -0.2459    2.8637 H   0  0  0  0  0  0
    2.8831   -1.2157   -0.3405 H   0  0  0  0  0  0
    3.8363   -0.5044    0.9177 H   0  0  0  0  0  0
    4.5475    0.2269   -1.3376 H   0  0  0  0  0  0
    4.0592    1.5959   -0.3666 H   0  0  0  0  0  0
    2.3075    0.1403   -2.4105 H   0  0  0  0  0  0
    2.5699    2.0854   -3.5633 H   0  0  0  0  0  0
    1.4821    2.8508   -1.5268 H   0  0  0  0  0  0
    0.5463    1.4415   -1.8484 H   0  0  0  0  0  0
    1.7815    2.4461    0.6598 H   0  0  0  0  0  0
    0.2032    1.7594    0.4569 H   0  0  0  0  0  0
    0.7209   -0.7551    1.0941 N   0  3  0  0  0  0
   -0.0557   -0.3021    1.5900 H   0  0  0  0  0  0
    1.1310   -1.4822    1.6918 H   0  0  0  0  0  0
  1  2  1  0  0  0
  1 17  1  0  0  0
  1 18  1  0  0  0
  1 19  1  0  0  0
  2  3  1  0  0  0
  2 20  1  0  0  0
  2 21  1  0  0  0
  3  4  1  0  0  0
  3 22  1  0  0  0
  3 23  1  0  0  0
  4  5  1  0  0  0
  4 24  1  0  0  0
  4 25  1  0  0  0
  5  6  1  0  0  0
  5 26  1  0  0  0
  5 27  1  0  0  0
  6  7  1  0  0  0
  6 28  1  0  0  0
  6 47  1  0  0  0
  7  8  1  0  0  0
  7 29  1  0  0  0
  7 30  1  0  0  0
  8 31  1  0  0  0
  8 32  1  0  0  0
  8 33  1  0  0  0
  9 10  1  0  0  0
  9 11  1  0  0  0
  9 16  1  0  0  0
  9 47  1  0  0  0
 10 34  1  0  0  0
 10 35  1  0  0  0
 10 36  1  0  0  0
 11 12  1  0  0  0
 11 37  1  0  0  0
 11 38  1  0  0  0
 12 13  1  0  0  0
 12 39  1  0  0  0
 12 40  1  0  0  0
 13 14  1  0  0  0
 13 15  1  0  0  0
 13 41  1  0  0  0
 14 42  1  0  0  0
 15 16  1  0  0  0
 15 43  1  0  0  0
 15 44  1  0  0  0
 16 45  1  0  0  0
 16 46  1  0  0  0
 47 48  1  0  0  0
 47 49  1  0  0  0
M  CHG  1  47   1
M  END
> <energy>
25.476

> <chiral flag>
0

> <version>
0

> <i_ionizer_Ion_state_n>
1

> <i_ionizer_Tot_Q>
1

> <s_ionizer_Ion_centers>
47

> <s_ionizer_Ion_types>
N5

> <s_ionizer_Ion_ctrs_in>
9

> <r_ionizer_Ionization_penalty>
0.000148807

> <r_ionizer_Ionization_penalty_charging>
0.000148807

> <r_ionizer_Ionization_penalty_neutral>
0

$$$$
ZINC001258433912
                    3D
 Structure written by MMmdl.
 49 49  0  0  1  0            999 V2000
   -4.3684    0.9757   -1.1113 C   0  0  0  0  0  0
   -3.6821    0.6627    0.2132 C   0  0  0  0  0  0
   -2.5751   -0.3519    0.0188 C   0  0  0  0  0  0
   -2.0933   -0.8945    1.3462 C   0  0  0  0  0  0
   -1.0765   -1.9700    1.1226 C   0  0  0  0  0  0
    0.3618   -1.5290    0.6093 C   0  0  1  0  0  0
    0.5711   -2.5607   -0.5175 C   0  0  0  0  0  0
    0.5966   -4.0089    0.0423 C   0  0  0  0  0  0
    2.1224    0.2299   -0.1521 C   0  0  2  0  0  0
    3.2972   -0.7632   -0.0151 C   0  0  0  0  0  0
    2.5173    1.1382   -1.3614 C   0  0  0  0  0  0
    1.9712    2.5678   -1.3023 C   0  0  0  0  0  0
    0.7069    2.6851   -0.4467 C   0  0  2  0  0  0
    0.3165    4.0486   -0.3670 O   0  0  0  0  0  0
    0.9298    2.1612    0.9761 C   0  0  0  0  0  0
    2.0535    1.1358    1.1098 C   0  0  0  0  0  0
   -5.0005    0.1275   -1.4272 H   0  0  0  0  0  0
   -3.6301    1.1830   -1.9133 H   0  0  0  0  0  0
   -5.0151    1.8526   -0.9727 H   0  0  0  0  0  0
   -4.4321    0.2993    0.9347 H   0  0  0  0  0  0
   -3.2498    1.5733    0.6402 H   0  0  0  0  0  0
   -1.7428    0.1545   -0.4724 H   0  0  0  0  0  0
   -2.9117   -1.1599   -0.6398 H   0  0  0  0  0  0
   -2.9390   -1.3220    1.9031 H   0  0  0  0  0  0
   -1.6899   -0.1061    1.9894 H   0  0  0  0  0  0
   -0.8955   -2.4813    2.0913 H   0  0  0  0  0  0
   -1.5472   -2.7633    0.5069 H   0  0  0  0  0  0
    0.6034   -0.7460    1.4425 H   0  0  0  0  0  0
   -0.2374   -2.4759   -1.2920 H   0  0  0  0  0  0
    1.5162   -2.4527   -1.0979 H   0  0  0  0  0  0
    1.0416   -4.0043    1.1065 H   0  0  0  0  0  0
    1.2430   -4.5413   -0.7092 H   0  0  0  0  0  0
   -0.4323   -4.5303    0.0677 H   0  0  0  0  0  0
    3.1838   -1.4229    0.8517 H   0  0  0  0  0  0
    4.2464   -0.2305    0.1073 H   0  0  0  0  0  0
    3.3842   -1.3694   -0.9235 H   0  0  0  0  0  0
    2.2312    0.6413   -2.2943 H   0  0  0  0  0  0
    3.6133    1.2304   -1.4285 H   0  0  0  0  0  0
    1.8204    2.9512   -2.3178 H   0  0  0  0  0  0
    2.7401    3.2143   -0.8672 H   0  0  0  0  0  0
   -0.1161    2.1615   -0.9507 H   0  0  0  0  0  0
   -0.3346    4.0955    0.3976 H   0  0  0  0  0  0
    1.1380    2.9923    1.6581 H   0  0  0  0  0  0
   -0.0161    1.7240    1.3289 H   0  0  0  0  0  0
    1.9407    0.5571    2.0328 H   0  0  0  0  0  0
    3.0096    1.6675    1.2506 H   0  0  0  0  0  0
    0.7695   -0.4463   -0.4583 N   0  3  0  0  0  0
    0.8327   -0.9009   -1.3768 H   0  0  0  0  0  0
    0.0417    0.2774   -0.4839 H   0  0  0  0  0  0
  1  2  1  0  0  0
  1 17  1  0  0  0
  1 18  1  0  0  0
  1 19  1  0  0  0
  2  3  1  0  0  0
  2 20  1  0  0  0
  2 21  1  0  0  0
  3  4  1  0  0  0
  3 22  1  0  0  0
  3 23  1  0  0  0
  4  5  1  0  0  0
  4 24  1  0  0  0
  4 25  1  0  0  0
  5  6  1  0  0  0
  5 26  1  0  0  0
  5 27  1  0  0  0
  6  7  1  0  0  0
  6 28  1  0  0  0
  6 47  1  0  0  0
  7  8  1  0  0  0
  7 29  1  0  0  0
  7 30  1  0  0  0
  8 31  1  0  0  0
  8 32  1  0  0  0
  8 33  1  0  0  0
  9 10  1  0  0  0
  9 11  1  0  0  0
  9 16  1  0  0  0
  9 47  1  0  0  0
 10 34  1  0  0  0
 10 35  1  0  0  0
 10 36  1  0  0  0
 11 12  1  0  0  0
 11 37  1  0  0  0
 11 38  1  0  0  0
 12 13  1  0  0  0
 12 39  1  0  0  0
 12 40  1  0  0  0
 13 14  1  0  0  0
 13 15  1  0  0  0
 13 41  1  0  0  0
 14 42  1  0  0  0
 15 16  1  0  0  0
 15 43  1  0  0  0
 15 44  1  0  0  0
 16 45  1  0  0  0
 16 46  1  0  0  0
 47 48  1  0  0  0
 47 49  1  0  0  0
M  CHG  1  47   1
M  END
> <energy>
103.319

> <chiral flag>
0

> <version>
0

> <i_ionizer_Ion_state_n>
1

> <i_ionizer_Tot_Q>
1

> <s_ionizer_Ion_centers>
47

> <s_ionizer_Ion_types>
N5

> <s_ionizer_Ion_ctrs_in>
9

> <r_ionizer_Ionization_penalty>
0.000148807

> <r_ionizer_Ionization_penalty_charging>
0.000148807

> <r_ionizer_Ionization_penalty_neutral>
0

$$$$
ZINC001258433919
                    3D
 Structure written by MMmdl.
 43 44  0  0  1  0            999 V2000
   -2.7668    2.4124    1.1227 C   0  0  0  0  0  0
   -3.7244    1.2436    0.9287 C   0  0  0  0  0  0
   -2.9918   -0.0915    0.7914 C   0  0  0  0  0  0
   -2.4548   -0.3380   -0.6239 C   0  0  0  0  0  0
   -1.5635   -1.5836   -0.6791 C   0  0  0  0  0  0
   -0.0851   -1.3267   -0.2916 C   0  0  1  0  0  0
    0.6020   -2.6347    0.1504 C   0  0  0  0  0  0
    0.1608   -3.0980    1.5349 C   0  0  0  0  0  0
    1.0481    0.5842   -1.3999 C   0  0  2  0  0  0
    2.1999    1.0231   -2.2749 C   0  0  0  0  0  0
    2.3425    1.0123   -0.7850 C   0  0  0  0  0  0
    3.2933    0.1828   -0.0045 C   0  0  0  0  0  0
    3.8983    1.5198    0.4508 C   0  0  0  0  0  0
    2.5856    2.2106    0.0545 C   0  0  0  0  0  0
   -2.0855    2.5217    0.2740 H   0  0  0  0  0  0
   -3.3304    3.3456    1.2360 H   0  0  0  0  0  0
   -2.1613    2.2718    2.0264 H   0  0  0  0  0  0
   -4.3660    1.4278    0.0588 H   0  0  0  0  0  0
   -4.3847    1.1910    1.8012 H   0  0  0  0  0  0
   -2.1831   -0.1543    1.5283 H   0  0  0  0  0  0
   -3.6968   -0.8976    1.0351 H   0  0  0  0  0  0
   -3.3126   -0.4996   -1.2902 H   0  0  0  0  0  0
   -1.9309    0.5373   -1.0125 H   0  0  0  0  0  0
   -2.0104   -2.3582   -0.0471 H   0  0  0  0  0  0
   -1.6067   -1.9916   -1.6976 H   0  0  0  0  0  0
   -0.0275   -0.6092    0.5355 H   0  0  0  0  0  0
    0.4096   -3.4308   -0.5791 H   0  0  0  0  0  0
    1.6901   -2.4939    0.1813 H   0  0  0  0  0  0
    0.7074   -4.0033    1.8204 H   0  0  0  0  0  0
   -0.9080   -3.3280    1.5700 H   0  0  0  0  0  0
    0.3659   -2.3287    2.2883 H   0  0  0  0  0  0
    0.2135    1.2797   -1.3424 H   0  0  0  0  0  0
    2.7417    0.2694   -2.8407 H   0  0  0  0  0  0
    2.1155    1.9784   -2.7802 H   0  0  0  0  0  0
    3.9780   -0.4623   -0.5581 H   0  0  0  0  0  0
    2.8382   -0.3916    0.8073 H   0  0  0  0  0  0
    4.1577    1.5740    1.5120 H   0  0  0  0  0  0
    4.7669    1.8352   -0.1388 H   0  0  0  0  0  0
    1.8754    2.3359    0.8772 H   0  0  0  0  0  0
    2.7114    3.1615   -0.4637 H   0  0  0  0  0  0
    0.6873   -0.8556   -1.4836 N   0  3  0  0  0  0
    1.5505   -1.4070   -1.5549 H   0  0  0  0  0  0
    0.1166   -1.0029   -2.3243 H   0  0  0  0  0  0
  1  2  1  0  0  0
  1 15  1  0  0  0
  1 16  1  0  0  0
  1 17  1  0  0  0
  2  3  1  0  0  0
  2 18  1  0  0  0
  2 19  1  0  0  0
  3  4  1  0  0  0
  3 20  1  0  0  0
  3 21  1  0  0  0
  4  5  1  0  0  0
  4 22  1  0  0  0
  4 23  1  0  0  0
  5  6  1  0  0  0
  5 24  1  0  0  0
  5 25  1  0  0  0
  6  7  1  0  0  0
  6 26  1  0  0  0
  6 41  1  0  0  0
  7  8  1  0  0  0
  7 27  1  0  0  0
  7 28  1  0  0  0
  8 29  1  0  0  0
  8 30  1  0  0  0
  8 31  1  0  0  0
  9 10  1  0  0  0
  9 11  1  0  0  0
  9 32  1  0  0  0
  9 41  1  0  0  0
 10 11  1  0  0  0
 10 33  1  0  0  0
 10 34  1  0  0  0
 11 12  1  0  0  0
 11 14  1  0  0  0
 12 13  1  0  0  0
 12 35  1  0  0  0
 12 36  1  0  0  0
 13 14  1  0  0  0
 13 37  1  0  0  0
 13 38  1  0  0  0
 14 39  1  0  0  0
 14 40  1  0  0  0
 41 42  1  0  0  0
 41 43  1  0  0  0
M  CHG  1  41   1
M  END
> <energy>
13.3347

> <chiral flag>
0

> <version>
0

> <i_ionizer_Ion_state_n>
1

> <i_ionizer_Tot_Q>
1

> <s_ionizer_Ion_centers>
41

> <s_ionizer_Ion_types>
N5

> <s_ionizer_Ion_ctrs_in>
9

> <r_ionizer_Ionization_penalty>
0.000148807

> <r_ionizer_Ionization_penalty_charging>
0.000148807

> <r_ionizer_Ionization_penalty_neutral>
0

$$$$
ZINC001258433920
                    3D
 Structure written by MMmdl.
 43 44  0  0  1  0            999 V2000
   -4.2127    2.1672   -0.3205 C   0  0  0  0  0  0
   -3.8614    0.7083   -0.5876 C   0  0  0  0  0  0
   -2.9375    0.1544    0.5005 C   0  0  0  0  0  0
   -2.4332   -1.2525    0.1604 C   0  0  0  0  0  0
   -1.3560   -1.7447    1.1374 C   0  0  0  0  0  0
    0.1188   -1.7153    0.6560 C   0  0  1  0  0  0
    0.4468   -2.7991   -0.4012 C   0  0  0  0  0  0
    0.4057   -2.3899   -1.8684 C   0  0  0  0  0  0
    1.8048    0.0341    0.9728 C   0  0  1  0  0  0
    3.1363   -0.4040    0.4230 C   0  0  0  0  0  0
    2.7328    1.0375    0.3594 C   0  0  0  0  0  0
    3.4173    2.1494    1.0621 C   0  0  0  0  0  0
    3.5966    2.7738   -0.3274 C   0  0  0  0  0  0
    2.5150    1.8321   -0.8730 C   0  0  0  0  0  0
   -4.7083    2.2803    0.6471 H   0  0  0  0  0  0
   -3.3096    2.7884   -0.3107 H   0  0  0  0  0  0
   -4.8839    2.5479   -1.0970 H   0  0  0  0  0  0
   -4.7818    0.1142   -0.6427 H   0  0  0  0  0  0
   -3.3746    0.6419   -1.5687 H   0  0  0  0  0  0
   -3.4835    0.1244    1.4517 H   0  0  0  0  0  0
   -2.0987    0.8414    0.6462 H   0  0  0  0  0  0
   -2.0827   -1.2908   -0.8723 H   0  0  0  0  0  0
   -3.2878   -1.9387    0.2171 H   0  0  0  0  0  0
   -1.5933   -2.7833    1.4118 H   0  0  0  0  0  0
   -1.4227   -1.1777    2.0757 H   0  0  0  0  0  0
    0.6745   -2.0258    1.5521 H   0  0  0  0  0  0
    1.4583   -3.1753   -0.2032 H   0  0  0  0  0  0
   -0.2217   -3.6576   -0.2632 H   0  0  0  0  0  0
    0.6482   -3.2534   -2.4984 H   0  0  0  0  0  0
   -0.5776   -2.0356   -2.1761 H   0  0  0  0  0  0
    1.1445   -1.6139   -2.0857 H   0  0  0  0  0  0
    1.7098    0.0835    2.0553 H   0  0  0  0  0  0
    3.1483   -0.9667   -0.5005 H   0  0  0  0  0  0
    3.9006   -0.6956    1.1351 H   0  0  0  0  0  0
    4.3475    1.9013    1.5769 H   0  0  0  0  0  0
    2.7715    2.7196    1.7362 H   0  0  0  0  0  0
    4.5869    2.6123   -0.7671 H   0  0  0  0  0  0
    3.3532    3.8375   -0.3949 H   0  0  0  0  0  0
    1.5210    2.2833   -0.9454 H   0  0  0  0  0  0
    2.7591    1.3479   -1.8191 H   0  0  0  0  0  0
    0.5663   -0.3590    0.2551 N   0  3  0  0  0  0
    0.7486   -0.3519   -0.7553 H   0  0  0  0  0  0
   -0.1756    0.3163    0.4737 H   0  0  0  0  0  0
  1  2  1  0  0  0
  1 15  1  0  0  0
  1 16  1  0  0  0
  1 17  1  0  0  0
  2  3  1  0  0  0
  2 18  1  0  0  0
  2 19  1  0  0  0
  3  4  1  0  0  0
  3 20  1  0  0  0
  3 21  1  0  0  0
  4  5  1  0  0  0
  4 22  1  0  0  0
  4 23  1  0  0  0
  5  6  1  0  0  0
  5 24  1  0  0  0
  5 25  1  0  0  0
  6  7  1  0  0  0
  6 26  1  0  0  0
  6 41  1  0  0  0
  7  8  1  0  0  0
  7 27  1  0  0  0
  7 28  1  0  0  0
  8 29  1  0  0  0
  8 30  1  0  0  0
  8 31  1  0  0  0
  9 10  1  0  0  0
  9 11  1  0  0  0
  9 32  1  0  0  0
  9 41  1  0  0  0
 10 11  1  0  0  0
 10 33  1  0  0  0
 10 34  1  0  0  0
 11 12  1  0  0  0
 11 14  1  0  0  0
 12 13  1  0  0  0
 12 35  1  0  0  0
 12 36  1  0  0  0
 13 14  1  0  0  0
 13 37  1  0  0  0
 13 38  1  0  0  0
 14 39  1  0  0  0
 14 40  1  0  0  0
 41 42  1  0  0  0
 41 43  1  0  0  0
M  CHG  1  41   1
M  END
> <energy>
17.6157

> <chiral flag>
0

> <version>
0

> <i_ionizer_Ion_state_n>
1

> <i_ionizer_Tot_Q>
1

> <s_ionizer_Ion_centers>
41

> <s_ionizer_Ion_types>
N5

> <s_ionizer_Ion_ctrs_in>
9

> <r_ionizer_Ionization_penalty>
0.000148807

> <r_ionizer_Ionization_penalty_charging>
0.000148807

> <r_ionizer_Ionization_penalty_neutral>
0

$$$$
ZINC001258433921
                    3D
 Structure written by MMmdl.
 43 44  0  0  1  0            999 V2000
   -2.7621    3.5812   -0.9859 C   0  0  0  0  0  0
   -2.6412    3.2974    0.5061 C   0  0  0  0  0  0
   -2.7234    1.8016    0.8222 C   0  0  0  0  0  0
   -1.4444    1.0299    0.4738 C   0  0  0  0  0  0
   -1.6945   -0.4834    0.5599 C   0  0  0  0  0  0
   -0.4669   -1.3309    0.1579 C   0  0  2  0  0  0
   -0.8468   -2.8177   -0.0045 C   0  0  0  0  0  0
   -1.7317   -3.0985   -1.2168 C   0  0  0  0  0  0
    1.9126   -1.5439    0.8168 C   0  0  2  0  0  0
    3.0496   -0.9221    1.5938 C   0  0  0  0  0  0
    2.8253   -0.5620    0.1608 C   0  0  0  0  0  0
    3.7629   -0.8362   -0.9582 C   0  0  0  0  0  0
    3.8103    0.6897   -1.1369 C   0  0  0  0  0  0
    2.4927    0.7922   -0.3515 C   0  0  0  0  0  0
   -2.7314    4.6606   -1.1678 H   0  0  0  0  0  0
   -1.9469    3.1235   -1.5545 H   0  0  0  0  0  0
   -3.7107    3.1976   -1.3770 H   0  0  0  0  0  0
   -1.7070    3.7198    0.8932 H   0  0  0  0  0  0
   -3.4639    3.8094    1.0199 H   0  0  0  0  0  0
   -2.9246    1.6748    1.8945 H   0  0  0  0  0  0
   -3.5806    1.3697    0.2923 H   0  0  0  0  0  0
   -1.1138    1.2740   -0.5417 H   0  0  0  0  0  0
   -0.6412    1.3288    1.1569 H   0  0  0  0  0  0
   -2.0191   -0.7407    1.5776 H   0  0  0  0  0  0
   -2.5403   -0.7133   -0.0976 H   0  0  0  0  0  0
   -0.0835   -0.9545   -0.7959 H   0  0  0  0  0  0
   -1.3556   -3.1754    0.8997 H   0  0  0  0  0  0
    0.0559   -3.4281   -0.1181 H   0  0  0  0  0  0
   -1.9083   -4.1783   -1.3026 H   0  0  0  0  0  0
   -2.7065   -2.6126   -1.1335 H   0  0  0  0  0  0
   -1.2503   -2.7580   -2.1394 H   0  0  0  0  0  0
    2.0462   -2.5927    0.5548 H   0  0  0  0  0  0
    3.8969   -1.5496    1.8421 H   0  0  0  0  0  0
    2.8099   -0.1792    2.3455 H   0  0  0  0  0  0
    4.7226   -1.2920   -0.7111 H   0  0  0  0  0  0
    3.3186   -1.3750   -1.8011 H   0  0  0  0  0  0
    4.6644    1.1670   -0.6410 H   0  0  0  0  0  0
    3.7593    1.0376   -2.1724 H   0  0  0  0  0  0
    2.4525    1.6057    0.3737 H   0  0  0  0  0  0
    1.6035    0.8298   -0.9888 H   0  0  0  0  0  0
    0.5423   -1.1537    1.2465 N   0  3  0  0  0  0
    0.5536   -0.1665    1.5286 H   0  0  0  0  0  0
    0.2695   -1.7354    2.0474 H   0  0  0  0  0  0
  1  2  1  0  0  0
  1 15  1  0  0  0
  1 16  1  0  0  0
  1 17  1  0  0  0
  2  3  1  0  0  0
  2 18  1  0  0  0
  2 19  1  0  0  0
  3  4  1  0  0  0
  3 20  1  0  0  0
  3 21  1  0  0  0
  4  5  1  0  0  0
  4 22  1  0  0  0
  4 23  1  0  0  0
  5  6  1  0  0  0
  5 24  1  0  0  0
  5 25  1  0  0  0
  6  7  1  0  0  0
  6 26  1  0  0  0
  6 41  1  0  0  0
  7  8  1  0  0  0
  7 27  1  0  0  0
  7 28  1  0  0  0
  8 29  1  0  0  0
  8 30  1  0  0  0
  8 31  1  0  0  0
  9 10  1  0  0  0
  9 11  1  0  0  0
  9 32  1  0  0  0
  9 41  1  0  0  0
 10 11  1  0  0  0
 10 33  1  0  0  0
 10 34  1  0  0  0
 11 12  1  0  0  0
 11 14  1  0  0  0
 12 13  1  0  0  0
 12 35  1  0  0  0
 12 36  1  0  0  0
 13 14  1  0  0  0
 13 37  1  0  0  0
 13 38  1  0  0  0
 14 39  1  0  0  0
 14 40  1  0  0  0
 41 42  1  0  0  0
 41 43  1  0  0  0
M  CHG  1  41   1
M  END
> <energy>
9.03617

> <chiral flag>
0

> <version>
0

> <i_ionizer_Ion_state_n>
1

> <i_ionizer_Tot_Q>
1

> <s_ionizer_Ion_centers>
41

> <s_ionizer_Ion_types>
N5

> <s_ionizer_Ion_ctrs_in>
9

> <r_ionizer_Ionization_penalty>
0.000148807

> <r_ionizer_Ionization_penalty_charging>
0.000148807

> <r_ionizer_Ionization_penalty_neutral>
0

$$$$
ZINC001258433922
                    3D
 Structure written by MMmdl.
 43 44  0  0  1  0            999 V2000
   -0.5615   -3.7585    0.2135 C   0  0  0  0  0  0
   -1.4706   -3.5161   -0.9859 C   0  0  0  0  0  0
   -1.9238   -2.0567   -1.1077 C   0  0  0  0  0  0
   -0.8490   -1.1502   -1.7133 C   0  0  0  0  0  0
   -1.2026    0.3428   -1.6336 C   0  0  0  0  0  0
   -1.0306    0.9163   -0.2023 C   0  0  2  0  0  0
   -2.4234    1.2661    0.3773 C   0  0  0  0  0  0
   -2.3977    1.6581    1.8491 C   0  0  0  0  0  0
    1.1996    1.9636   -0.5630 C   0  0  1  0  0  0
    2.2109    2.8595    0.1233 C   0  0  0  0  0  0
    2.2344    1.3801    0.3376 C   0  0  0  0  0  0
    3.3526    0.4898   -0.0660 C   0  0  0  0  0  0
    3.5035    0.1933    1.4343 C   0  0  0  0  0  0
    2.0629    0.6919    1.6420 C   0  0  0  0  0  0
   -1.0582   -3.4741    1.1467 H   0  0  0  0  0  0
   -0.3083   -4.8218    0.2803 H   0  0  0  0  0  0
    0.3702   -3.1902    0.1376 H   0  0  0  0  0  0
   -0.9659   -3.8397   -1.9038 H   0  0  0  0  0  0
   -2.3611   -4.1480   -0.8729 H   0  0  0  0  0  0
   -2.2429   -1.6951   -0.1245 H   0  0  0  0  0  0
   -2.8114   -2.0224   -1.7541 H   0  0  0  0  0  0
   -0.7244   -1.4180   -2.7716 H   0  0  0  0  0  0
    0.1225   -1.3170   -1.2355 H   0  0  0  0  0  0
   -2.2255    0.5030   -2.0000 H   0  0  0  0  0  0
   -0.5549    0.8694   -2.3444 H   0  0  0  0  0  0
   -0.5740    0.1622    0.4494 H   0  0  0  0  0  0
   -3.0949    0.4066    0.2691 H   0  0  0  0  0  0
   -2.8717    2.0858   -0.2011 H   0  0  0  0  0  0
   -3.4164    1.8801    2.1868 H   0  0  0  0  0  0
   -2.0110    0.8424    2.4689 H   0  0  0  0  0  0
   -1.7832    2.5490    2.0258 H   0  0  0  0  0  0
    1.3554    1.8179   -1.6326 H   0  0  0  0  0  0
    2.9875    3.3068   -0.4819 H   0  0  0  0  0  0
    1.8714    3.4816    0.9461 H   0  0  0  0  0  0
    3.0443   -0.3676   -0.6697 H   0  0  0  0  0  0
    4.2211    0.9618   -0.5260 H   0  0  0  0  0  0
    3.6712   -0.8579    1.6857 H   0  0  0  0  0  0
    4.2629    0.8025    1.9357 H   0  0  0  0  0  0
    1.3247   -0.1146    1.6504 H   0  0  0  0  0  0
    1.9190    1.3190    2.5233 H   0  0  0  0  0  0
   -0.2205    2.1732   -0.1568 N   0  3  0  0  0  0
   -0.6449    2.8597   -0.7915 H   0  0  0  0  0  0
   -0.2363    2.5387    0.8026 H   0  0  0  0  0  0
  1  2  1  0  0  0
  1 15  1  0  0  0
  1 16  1  0  0  0
  1 17  1  0  0  0
  2  3  1  0  0  0
  2 18  1  0  0  0
  2 19  1  0  0  0
  3  4  1  0  0  0
  3 20  1  0  0  0
  3 21  1  0  0  0
  4  5  1  0  0  0
  4 22  1  0  0  0
  4 23  1  0  0  0
  5  6  1  0  0  0
  5 24  1  0  0  0
  5 25  1  0  0  0
  6  7  1  0  0  0
  6 26  1  0  0  0
  6 41  1  0  0  0
  7  8  1  0  0  0
  7 27  1  0  0  0
  7 28  1  0  0  0
  8 29  1  0  0  0
  8 30  1  0  0  0
  8 31  1  0  0  0
  9 10  1  0  0  0
  9 11  1  0  0  0
  9 32  1  0  0  0
  9 41  1  0  0  0
 10 11  1  0  0  0
 10 33  1  0  0  0
 10 34  1  0  0  0
 11 12  1  0  0  0
 11 14  1  0  0  0
 12 13  1  0  0  0
 12 35  1  0  0  0
 12 36  1  0  0  0
 13 14  1  0  0  0
 13 37  1  0  0  0
 13 38  1  0  0  0
 14 39  1  0  0  0
 14 40  1  0  0  0
 41 42  1  0  0  0
 41 43  1  0  0  0
M  CHG  1  41   1
M  END
> <energy>
14.1475

> <chiral flag>
0

> <version>
0

> <i_ionizer_Ion_state_n>
1

> <i_ionizer_Tot_Q>
1

> <s_ionizer_Ion_centers>
41

> <s_ionizer_Ion_types>
N5

> <s_ionizer_Ion_ctrs_in>
9

> <r_ionizer_Ionization_penalty>
0.000148807

> <r_ionizer_Ionization_penalty_charging>
0.000148807

> <r_ionizer_Ionization_penalty_neutral>
0

$$$$
ZINC001258433997
                    3D
 Structure written by MMmdl.
 46 46  0  0  1  0            999 V2000
    2.1352   -0.4713   -3.3112 C   0  0  0  0  0  0
    1.0266   -1.3793   -3.8284 C   0  0  0  0  0  0
    0.1546   -1.9436   -2.7041 C   0  0  0  0  0  0
   -0.8301   -0.9168   -2.1324 C   0  0  0  0  0  0
   -1.4885   -1.3757   -0.8217 C   0  0  0  0  0  0
   -0.5235   -1.2689    0.3811 C   0  0  2  0  0  0
   -0.0494   -2.6657    0.8392 C   0  0  0  0  0  0
    1.1422   -2.5670    1.7827 C   0  0  0  0  0  0
   -1.1737    0.8442    1.5261 C   0  0  1  0  0  0
   -2.2177    1.2920    2.5588 C   0  0  0  0  0  0
    0.2472    1.4365    1.7932 C   0  0  2  0  0  0
    0.3111    2.8381    2.3944 C   0  0  0  0  0  0
    0.1638    3.7230    1.1865 C   0  0  0  0  0  0
    0.9892    2.9685    0.1700 C   0  0  0  0  0  0
    0.9212    1.5771    0.5117 O   0  0  0  0  0  0
    2.8172   -0.2048   -4.1252 H   0  0  0  0  0  0
    1.7349    0.4568   -2.8936 H   0  0  0  0  0  0
    2.7209   -0.9717   -2.5330 H   0  0  0  0  0  0
    0.4143   -0.8404   -4.5590 H   0  0  0  0  0  0
    1.4935   -2.2187   -4.3565 H   0  0  0  0  0  0
   -0.4229   -2.7893   -3.0962 H   0  0  0  0  0  0
    0.8085   -2.3457   -1.9239 H   0  0  0  0  0  0
   -0.3388    0.0484   -1.9665 H   0  0  0  0  0  0
   -1.6150   -0.7413   -2.8798 H   0  0  0  0  0  0
   -1.8824   -2.3922   -0.9378 H   0  0  0  0  0  0
   -2.3641   -0.7316   -0.6707 H   0  0  0  0  0  0
    0.3705   -0.7152    0.0847 H   0  0  0  0  0  0
   -0.8654   -3.2046    1.3335 H   0  0  0  0  0  0
    0.2436   -3.2750   -0.0211 H   0  0  0  0  0  0
    0.9627   -1.8613    2.5987 H   0  0  0  0  0  0
    2.0285   -2.2306    1.2369 H   0  0  0  0  0  0
    1.3650   -3.5400    2.2241 H   0  0  0  0  0  0
   -1.5272    1.1821    0.5440 H   0  0  0  0  0  0
   -3.1967    0.8372    2.3550 H   0  0  0  0  0  0
   -2.3798    2.3722    2.5097 H   0  0  0  0  0  0
   -1.9197    1.0268    3.5798 H   0  0  0  0  0  0
    0.8389    0.7469    2.4101 H   0  0  0  0  0  0
   -0.4057    3.0406    3.1906 H   0  0  0  0  0  0
    1.3094    3.0019    2.8177 H   0  0  0  0  0  0
   -0.8840    3.7595    0.8718 H   0  0  0  0  0  0
    0.5214    4.7462    1.3401 H   0  0  0  0  0  0
    2.0389    3.2684    0.2264 H   0  0  0  0  0  0
    0.6394    3.1092   -0.8574 H   0  0  0  0  0  0
   -1.1964   -0.6575    1.5689 N   0  3  0  0  0  0
   -2.1734   -0.9726    1.5935 H   0  0  0  0  0  0
   -0.7142   -0.9711    2.4194 H   0  0  0  0  0  0
  1  2  1  0  0  0
  1 16  1  0  0  0
  1 17  1  0  0  0
  1 18  1  0  0  0
  2  3  1  0  0  0
  2 19  1  0  0  0
  2 20  1  0  0  0
  3  4  1  0  0  0
  3 21  1  0  0  0
  3 22  1  0  0  0
  4  5  1  0  0  0
  4 23  1  0  0  0
  4 24  1  0  0  0
  5  6  1  0  0  0
  5 25  1  0  0  0
  5 26  1  0  0  0
  6  7  1  0  0  0
  6 27  1  0  0  0
  6 44  1  0  0  0
  7  8  1  0  0  0
  7 28  1  0  0  0
  7 29  1  0  0  0
  8 30  1  0  0  0
  8 31  1  0  0  0
  8 32  1  0  0  0
  9 10  1  0  0  0
  9 11  1  0  0  0
  9 33  1  0  0  0
  9 44  1  0  0  0
 10 34  1  0  0  0
 10 35  1  0  0  0
 10 36  1  0  0  0
 11 12  1  0  0  0
 11 15  1  0  0  0
 11 37  1  0  0  0
 12 13  1  0  0  0
 12 38  1  0  0  0
 12 39  1  0  0  0
 13 14  1  0  0  0
 13 40  1  0  0  0
 13 41  1  0  0  0
 14 15  1  0  0  0
 14 42  1  0  0  0
 14 43  1  0  0  0
 44 45  1  0  0  0
 44 46  1  0  0  0
M  CHG  1  44   1
M  END
> <energy>
39.0663

> <chiral flag>
0

> <version>
0

> <i_ionizer_Ion_state_n>
1

> <i_ionizer_Tot_Q>
1

> <s_ionizer_Ion_centers>
44

> <s_ionizer_Ion_types>
N5

> <s_ionizer_Ion_ctrs_in>
9

> <r_ionizer_Ionization_penalty>
0.000148807

> <r_ionizer_Ionization_penalty_charging>
0.000148807

> <r_ionizer_Ionization_penalty_neutral>
0

$$$$
ZINC001258433999
                    3D
 Structure written by MMmdl.
 46 46  0  0  1  0            999 V2000
   -3.9733    3.3822   -1.1772 C   0  0  0  0  0  0
   -2.9054    3.4786   -0.0985 C   0  0  0  0  0  0
   -3.0079    2.3743    0.9549 C   0  0  0  0  0  0
   -2.7705    0.9480    0.4429 C   0  0  0  0  0  0
   -1.3370    0.7325   -0.0638 C   0  0  0  0  0  0
   -0.9063   -0.7546   -0.1124 C   0  0  1  0  0  0
   -1.7832   -1.5484   -1.1129 C   0  0  0  0  0  0
   -1.5923   -3.0607   -1.0557 C   0  0  0  0  0  0
    1.5206   -0.2172    0.2933 C   0  0  1  0  0  0
    1.5274   -0.6744    1.7577 C   0  0  0  0  0  0
    2.9200   -0.3650   -0.3704 C   0  0  2  0  0  0
    3.5070   -1.7755   -0.4153 C   0  0  0  0  0  0
    4.6252   -1.7340    0.5987 C   0  0  0  0  0  0
    5.0736   -0.2967    0.5132 C   0  0  0  0  0  0
    3.8773    0.4636    0.3282 O   0  0  0  0  0  0
   -4.9720    3.3084   -0.7351 H   0  0  0  0  0  0
   -3.8142    2.5138   -1.8223 H   0  0  0  0  0  0
   -3.9501    4.2750   -1.8104 H   0  0  0  0  0  0
   -3.0125    4.4451    0.4096 H   0  0  0  0  0  0
   -1.9138    3.4790   -0.5620 H   0  0  0  0  0  0
   -3.9987    2.4145    1.4223 H   0  0  0  0  0  0
   -2.2855    2.5856    1.7531 H   0  0  0  0  0  0
   -2.9696    0.2594    1.2739 H   0  0  0  0  0  0
   -3.4939    0.7070   -0.3422 H   0  0  0  0  0  0
   -0.6765    1.2860    0.6104 H   0  0  0  0  0  0
   -1.2259    1.1806   -1.0583 H   0  0  0  0  0  0
   -1.0525   -1.1941    0.8819 H   0  0  0  0  0  0
   -2.8432   -1.3537   -0.9193 H   0  0  0  0  0  0
   -1.5842   -1.2013   -2.1343 H   0  0  0  0  0  0
   -0.5889   -3.3635   -1.3662 H   0  0  0  0  0  0
   -1.7747   -3.4389   -0.0457 H   0  0  0  0  0  0
   -2.3058   -3.5455   -1.7294 H   0  0  0  0  0  0
    1.3214    0.8602    0.2871 H   0  0  0  0  0  0
    1.6395   -1.7600    1.8414 H   0  0  0  0  0  0
    2.3488   -0.2047    2.3093 H   0  0  0  0  0  0
    0.6020   -0.3915    2.2695 H   0  0  0  0  0  0
    2.8532    0.0303   -1.3916 H   0  0  0  0  0  0
    3.9233   -1.9566   -1.4145 H   0  0  0  0  0  0
    2.7936   -2.5786   -0.2159 H   0  0  0  0  0  0
    5.4314   -2.4415    0.3891 H   0  0  0  0  0  0
    4.2306   -1.9474    1.6001 H   0  0  0  0  0  0
    5.5916    0.0389    1.4155 H   0  0  0  0  0  0
    5.7234   -0.1271   -0.3526 H   0  0  0  0  0  0
    0.5181   -0.9504   -0.5579 N   0  3  0  0  0  0
    0.7343   -1.9535   -0.5231 H   0  0  0  0  0  0
    0.6052   -0.6147   -1.5243 H   0  0  0  0  0  0
  1  2  1  0  0  0
  1 16  1  0  0  0
  1 17  1  0  0  0
  1 18  1  0  0  0
  2  3  1  0  0  0
  2 19  1  0  0  0
  2 20  1  0  0  0
  3  4  1  0  0  0
  3 21  1  0  0  0
  3 22  1  0  0  0
  4  5  1  0  0  0
  4 23  1  0  0  0
  4 24  1  0  0  0
  5  6  1  0  0  0
  5 25  1  0  0  0
  5 26  1  0  0  0
  6  7  1  0  0  0
  6 27  1  0  0  0
  6 44  1  0  0  0
  7  8  1  0  0  0
  7 28  1  0  0  0
  7 29  1  0  0  0
  8 30  1  0  0  0
  8 31  1  0  0  0
  8 32  1  0  0  0
  9 10  1  0  0  0
  9 11  1  0  0  0
  9 33  1  0  0  0
  9 44  1  0  0  0
 10 34  1  0  0  0
 10 35  1  0  0  0
 10 36  1  0  0  0
 11 12  1  0  0  0
 11 15  1  0  0  0
 11 37  1  0  0  0
 12 13  1  0  0  0
 12 38  1  0  0  0
 12 39  1  0  0  0
 13 14  1  0  0  0
 13 40  1  0  0  0
 13 41  1  0  0  0
 14 15  1  0  0  0
 14 42  1  0  0  0
 14 43  1  0  0  0
 44 45  1  0  0  0
 44 46  1  0  0  0
M  CHG  1  44   1
M  END
> <energy>
33.5112

> <chiral flag>
0

> <version>
0

> <i_ionizer_Ion_state_n>
1

> <i_ionizer_Tot_Q>
1

> <s_ionizer_Ion_centers>
44

> <s_ionizer_Ion_types>
N5

> <s_ionizer_Ion_ctrs_in>
9

> <r_ionizer_Ionization_penalty>
0.000148807

> <r_ionizer_Ionization_penalty_charging>
0.000148807

> <r_ionizer_Ionization_penalty_neutral>
0

$$$$
ZINC001258434070
                    3D
 Structure written by MMmdl.
 43 43  0  0  1  0            999 V2000
   -1.6543    3.3538   -2.1661 C   0  0  0  0  0  0
   -0.7618    2.2970   -2.7939 C   0  0  0  0  0  0
   -1.2380    0.8641   -2.5441 C   0  0  0  0  0  0
   -1.2709    0.4868   -1.0584 C   0  0  0  0  0  0
   -1.2550   -1.0251   -0.8092 C   0  0  0  0  0  0
    0.1129   -1.7145   -0.5792 C   0  0  1  0  0  0
    1.3449   -1.1855   -1.3482 C   0  0  0  0  0  0
    2.1595   -0.0985   -0.6657 C   0  0  0  0  0  0
    0.4506   -2.1251    0.7924 N   0  0  0  0  0  0
    1.1615   -3.2980    0.9972 C   0  0  0  0  0  0
    1.3989   -3.4546    2.3377 C   0  0  0  0  0  0
    0.8076   -2.3543    2.9820 C   0  0  0  0  0  0
    0.2346   -1.5277    2.0233 C   0  0  0  0  0  0
   -0.4778   -0.2421    2.3241 C   0  0  0  0  0  0
    0.4959    0.8970    2.6496 C   0  0  0  0  0  0
   -2.6925    3.2355   -2.4915 H   0  0  0  0  0  0
   -1.6229    3.3064   -1.0737 H   0  0  0  0  0  0
   -1.3168    4.3509   -2.4680 H   0  0  0  0  0  0
   -0.7319    2.4682   -3.8764 H   0  0  0  0  0  0
    0.2648    2.4194   -2.4257 H   0  0  0  0  0  0
   -2.2430    0.7321   -2.9653 H   0  0  0  0  0  0
   -0.5895    0.1858   -3.1024 H   0  0  0  0  0  0
   -0.4737    0.9795   -0.5014 H   0  0  0  0  0  0
   -2.2077    0.8824   -0.6453 H   0  0  0  0  0  0
   -1.7394   -1.5103   -1.6675 H   0  0  0  0  0  0
   -1.9201   -1.2635    0.0288 H   0  0  0  0  0  0
   -0.0768   -2.6905   -1.0559 H   0  0  0  0  0  0
    2.0308   -2.0293   -1.5021 H   0  0  0  0  0  0
    1.0640   -0.8671   -2.3562 H   0  0  0  0  0  0
    3.0585    0.1155   -1.2538 H   0  0  0  0  0  0
    1.6066    0.8359   -0.5722 H   0  0  0  0  0  0
    2.4969   -0.4093    0.3270 H   0  0  0  0  0  0
    1.4579   -3.9171    0.1603 H   0  0  0  0  0  0
    1.9382   -4.2718    2.7940 H   0  0  0  0  0  0
    0.7987   -2.1626    4.0480 H   0  0  0  0  0  0
   -1.1494    0.0586    1.5248 H   0  0  0  0  0  0
   -1.1283   -0.4184    3.1925 H   0  0  0  0  0  0
    1.1218    1.1208    1.7814 H   0  0  0  0  0  0
    1.1668    0.6058    3.4655 H   0  0  0  0  0  0
    0.4530    2.8680    3.1527 H   0  0  0  0  0  0
   -0.2178    2.1078    3.0414 N   0  3  0  0  0  0
   -0.9007    2.3541    2.3153 H   0  0  0  0  0  0
   -0.7063    1.9462    3.9300 H   0  0  0  0  0  0
  1  2  1  0  0  0
  1 16  1  0  0  0
  1 17  1  0  0  0
  1 18  1  0  0  0
  2  3  1  0  0  0
  2 19  1  0  0  0
  2 20  1  0  0  0
  3  4  1  0  0  0
  3 21  1  0  0  0
  3 22  1  0  0  0
  4  5  1  0  0  0
  4 23  1  0  0  0
  4 24  1  0  0  0
  5  6  1  0  0  0
  5 25  1  0  0  0
  5 26  1  0  0  0
  6  7  1  0  0  0
  6  9  1  0  0  0
  6 27  1  0  0  0
  7  8  1  0  0  0
  7 28  1  0  0  0
  7 29  1  0  0  0
  8 30  1  0  0  0
  8 31  1  0  0  0
  8 32  1  0  0  0
  9 10  1  0  0  0
  9 13  1  0  0  0
 10 11  2  0  0  0
 10 33  1  0  0  0
 11 12  1  0  0  0
 11 34  1  0  0  0
 12 13  2  0  0  0
 12 35  1  0  0  0
 13 14  1  0  0  0
 14 15  1  0  0  0
 14 36  1  0  0  0
 14 37  1  0  0  0
 15 38  1  0  0  0
 15 39  1  0  0  0
 15 41  1  0  0  0
 40 41  1  0  0  0
 41 42  1  0  0  0
 41 43  1  0  0  0
M  CHG  1  41   1
M  END
> <energy>
38.0939

> <chiral flag>
0

> <version>
0

> <i_ionizer_Ion_state_n>
1

> <i_ionizer_Tot_Q>
1

> <s_ionizer_Ion_centers>
41

> <s_ionizer_Ion_types>
N5

> <s_ionizer_Ion_ctrs_in>
16

> <r_ionizer_Ionization_penalty>
0.000470441

> <r_ionizer_Ionization_penalty_charging>
0.000470441

> <r_ionizer_Ionization_penalty_neutral>
0

$$$$
ZINC001258434071
                    3D
 Structure written by MMmdl.
 43 43  0  0  1  0            999 V2000
   -2.6188    2.6022   -1.8630 C   0  0  0  0  0  0
   -3.4807    1.9683   -0.7802 C   0  0  0  0  0  0
   -2.9937    0.5745   -0.3781 C   0  0  0  0  0  0
   -1.7396    0.6010    0.4956 C   0  0  0  0  0  0
   -1.1718   -0.8061    0.7591 C   0  0  0  0  0  0
    0.1835   -1.0581    0.0464 C   0  0  2  0  0  0
    0.1307   -2.1497   -1.0432 C   0  0  0  0  0  0
   -0.7105   -1.7742   -2.2513 C   0  0  0  0  0  0
    1.2581   -1.3868    1.0032 N   0  0  0  0  0  0
    1.1634   -2.3743    1.9602 C   0  0  0  0  0  0
    2.3492   -2.4277    2.6503 C   0  0  0  0  0  0
    3.2103   -1.4711    2.0728 C   0  0  0  0  0  0
    2.5249   -0.8381    1.0462 C   0  0  0  0  0  0
    3.0392    0.2268    0.1209 C   0  0  0  0  0  0
    2.9247    1.6417    0.7107 C   0  0  0  0  0  0
   -2.5516    1.9477   -2.7383 H   0  0  0  0  0  0
   -1.6053    2.8045   -1.5060 H   0  0  0  0  0  0
   -3.0579    3.5511   -2.1854 H   0  0  0  0  0  0
   -3.5286    2.6270    0.0947 H   0  0  0  0  0  0
   -4.5040    1.8800   -1.1650 H   0  0  0  0  0  0
   -3.7931    0.0679    0.1761 H   0  0  0  0  0  0
   -2.8150   -0.0125   -1.2829 H   0  0  0  0  0  0
   -2.0027    1.0542    1.4599 H   0  0  0  0  0  0
   -0.9832    1.2548    0.0544 H   0  0  0  0  0  0
   -1.0495   -0.8913    1.8458 H   0  0  0  0  0  0
   -1.9015   -1.5772    0.4864 H   0  0  0  0  0  0
    0.4974   -0.1333   -0.4446 H   0  0  0  0  0  0
    1.1496   -2.3487   -1.3986 H   0  0  0  0  0  0
   -0.2363   -3.0951   -0.6262 H   0  0  0  0  0  0
   -0.4941   -0.7580   -2.5909 H   0  0  0  0  0  0
   -0.5056   -2.4592   -3.0802 H   0  0  0  0  0  0
   -1.7759   -1.8508   -2.0283 H   0  0  0  0  0  0
    0.2554   -2.9476    2.0785 H   0  0  0  0  0  0
    2.5687   -3.0937    3.4736 H   0  0  0  0  0  0
    4.2301   -1.2667    2.3684 H   0  0  0  0  0  0
    4.1029    0.0272   -0.0613 H   0  0  0  0  0  0
    2.5696    0.1684   -0.8661 H   0  0  0  0  0  0
    3.2466    1.6462    1.7578 H   0  0  0  0  0  0
    3.6004    2.3094    0.1618 H   0  0  0  0  0  0
    1.5445    3.0656    1.1793 H   0  0  0  0  0  0
    1.5808    2.2091    0.6247 N   0  3  0  0  0  0
    1.3605    2.4233   -0.3550 H   0  0  0  0  0  0
    0.8988    1.5335    0.9890 H   0  0  0  0  0  0
  1  2  1  0  0  0
  1 16  1  0  0  0
  1 17  1  0  0  0
  1 18  1  0  0  0
  2  3  1  0  0  0
  2 19  1  0  0  0
  2 20  1  0  0  0
  3  4  1  0  0  0
  3 21  1  0  0  0
  3 22  1  0  0  0
  4  5  1  0  0  0
  4 23  1  0  0  0
  4 24  1  0  0  0
  5  6  1  0  0  0
  5 25  1  0  0  0
  5 26  1  0  0  0
  6  7  1  0  0  0
  6  9  1  0  0  0
  6 27  1  0  0  0
  7  8  1  0  0  0
  7 28  1  0  0  0
  7 29  1  0  0  0
  8 30  1  0  0  0
  8 31  1  0  0  0
  8 32  1  0  0  0
  9 10  1  0  0  0
  9 13  1  0  0  0
 10 11  2  0  0  0
 10 33  1  0  0  0
 11 12  1  0  0  0
 11 34  1  0  0  0
 12 13  2  0  0  0
 12 35  1  0  0  0
 13 14  1  0  0  0
 14 15  1  0  0  0
 14 36  1  0  0  0
 14 37  1  0  0  0
 15 38  1  0  0  0
 15 39  1  0  0  0
 15 41  1  0  0  0
 40 41  1  0  0  0
 41 42  1  0  0  0
 41 43  1  0  0  0
M  CHG  1  41   1
M  END
> <energy>
32.4667

> <chiral flag>
0

> <version>
0

> <i_ionizer_Ion_state_n>
1

> <i_ionizer_Tot_Q>
1

> <s_ionizer_Ion_centers>
41

> <s_ionizer_Ion_types>
N5

> <s_ionizer_Ion_ctrs_in>
16

> <r_ionizer_Ionization_penalty>
0.000470441

> <r_ionizer_Ionization_penalty_charging>
0.000470441

> <r_ionizer_Ionization_penalty_neutral>
0

$$$$
ZINC001258434139
                    3D
 Structure written by MMmdl.
 42 42  0  0  1  0            999 V2000
   -4.3497    0.4708   -2.2449 C   0  0  0  0  0  0
   -3.8113   -0.6743   -1.4006 C   0  0  0  0  0  0
   -3.0519   -0.2074   -0.1560 C   0  0  0  0  0  0
   -1.7194    0.4797   -0.4813 C   0  0  0  0  0  0
   -0.9580    0.9275    0.7765 C   0  0  0  0  0  0
    0.1604    0.0019    1.3319 C   0  0  1  0  0  0
   -0.2892   -1.4720    1.4525 C   0  0  0  0  0  0
    0.7249   -2.3590    2.1685 C   0  0  0  0  0  0
    1.5468   -0.1707   -0.7391 C   0  0  0  0  0  0
    2.9957   -0.2801   -1.2094 C   0  0  0  0  0  0
    3.7652    0.9823   -0.8658 C   0  0  2  0  0  0
    5.0771    0.8023   -1.1780 F   0  0  0  0  0  0
    3.6480    1.3061    0.6120 C   0  0  0  0  0  0
    2.1821    1.3678    1.0317 C   0  0  0  0  0  0
   -4.9839    1.1337   -1.6473 H   0  0  0  0  0  0
   -3.5415    1.0652   -2.6802 H   0  0  0  0  0  0
   -4.9538    0.0785   -3.0695 H   0  0  0  0  0  0
   -4.6576   -1.2931   -1.0786 H   0  0  0  0  0  0
   -3.1679   -1.3134   -2.0160 H   0  0  0  0  0  0
   -2.8713   -1.0836    0.4743 H   0  0  0  0  0  0
   -3.6879    0.4720    0.4249 H   0  0  0  0  0  0
   -1.1134   -0.1730   -1.1142 H   0  0  0  0  0  0
   -1.9308    1.3777   -1.0737 H   0  0  0  0  0  0
   -0.5270    1.9162    0.5762 H   0  0  0  0  0  0
   -1.6815    1.1027    1.5842 H   0  0  0  0  0  0
    0.3022    0.3273    2.3734 H   0  0  0  0  0  0
   -1.2231   -1.5081    2.0267 H   0  0  0  0  0  0
   -0.5031   -1.9063    0.4704 H   0  0  0  0  0  0
    1.6545   -2.4493    1.5984 H   0  0  0  0  0  0
    0.3160   -3.3663    2.2979 H   0  0  0  0  0  0
    0.9632   -1.9620    3.1604 H   0  0  0  0  0  0
    1.0573   -1.1228   -0.9678 H   0  0  0  0  0  0
    1.0402    0.6126   -1.3153 H   0  0  0  0  0  0
    3.4830   -1.1478   -0.7466 H   0  0  0  0  0  0
    3.0329   -0.4518   -2.2914 H   0  0  0  0  0  0
    3.4014    1.8232   -1.4670 H   0  0  0  0  0  0
    4.1822    0.5490    1.2000 H   0  0  0  0  0  0
    4.1449    2.2600    0.8225 H   0  0  0  0  0  0
    1.6996    2.2272    0.5510 H   0  0  0  0  0  0
    2.1534    1.5418    2.1140 H   0  0  0  0  0  0
    1.5491    0.0640    0.7336 N   0  3  1  0  0  0
    2.1124   -0.6752    1.1700 H   0  0  0  0  0  0
  1  2  1  0  0  0
  1 15  1  0  0  0
  1 16  1  0  0  0
  1 17  1  0  0  0
  2  3  1  0  0  0
  2 18  1  0  0  0
  2 19  1  0  0  0
  3  4  1  0  0  0
  3 20  1  0  0  0
  3 21  1  0  0  0
  4  5  1  0  0  0
  4 22  1  0  0  0
  4 23  1  0  0  0
  5  6  1  0  0  0
  5 24  1  0  0  0
  5 25  1  0  0  0
  6  7  1  0  0  0
  6 26  1  0  0  0
  6 41  1  0  0  0
  7  8  1  0  0  0
  7 27  1  0  0  0
  7 28  1  0  0  0
  8 29  1  0  0  0
  8 30  1  0  0  0
  8 31  1  0  0  0
  9 10  1  0  0  0
  9 32  1  0  0  0
  9 33  1  0  0  0
  9 41  1  0  0  0
 10 11  1  0  0  0
 10 34  1  0  0  0
 10 35  1  0  0  0
 11 12  1  0  0  0
 11 13  1  0  0  0
 11 36  1  0  0  0
 13 14  1  0  0  0
 13 37  1  0  0  0
 13 38  1  0  0  0
 14 39  1  0  0  0
 14 40  1  0  0  0
 14 41  1  0  0  0
 41 42  1  0  0  0
M  CHG  1  41   1
M  END
> <energy>
1.2915

> <chiral flag>
0

> <version>
0

> <i_ionizer_Ion_state_n>
1

> <i_ionizer_Tot_Q>
1

> <s_ionizer_Ion_centers>
41

> <s_ionizer_Ion_types>
N5

> <s_ionizer_Ion_ctrs_in>
9

> <r_ionizer_Ionization_penalty>
0.00148639

> <r_ionizer_Ionization_penalty_charging>
0.00148639

> <r_ionizer_Ionization_penalty_neutral>
0

$$$$
ZINC001258434140
                    3D
 Structure written by MMmdl.
 42 42  0  0  1  0            999 V2000
   -3.9730   -1.8001   -0.6400 C   0  0  0  0  0  0
   -3.7885   -0.6327   -1.5976 C   0  0  0  0  0  0
   -2.3325   -0.1871   -1.7509 C   0  0  0  0  0  0
   -1.7053    0.2941   -0.4407 C   0  0  0  0  0  0
   -0.3298    0.9356   -0.6723 C   0  0  0  0  0  0
    0.3945    1.2697    0.6561 C   0  0  2  0  0  0
    0.9088    2.7331    0.6266 C   0  0  0  0  0  0
    1.5369    3.1814    1.9410 C   0  0  0  0  0  0
    0.9416   -1.0011    1.5279 C   0  0  0  0  0  0
    0.9985   -2.0886    0.4593 C   0  0  0  0  0  0
    2.3869   -2.1662   -0.1447 C   0  0  1  0  0  0
    2.3792   -3.0761   -1.1557 F   0  0  0  0  0  0
    2.8135   -0.8215   -0.6981 C   0  0  0  0  0  0
    2.6991    0.2631    0.3675 C   0  0  0  0  0  0
   -3.3482   -2.6494   -0.9320 H   0  0  0  0  0  0
   -5.0176   -2.1279   -0.6420 H   0  0  0  0  0  0
   -3.7204   -1.5211    0.3875 H   0  0  0  0  0  0
   -4.1685   -0.9269   -2.5834 H   0  0  0  0  0  0
   -4.4023    0.2110   -1.2627 H   0  0  0  0  0  0
   -1.7389   -1.0156   -2.1561 H   0  0  0  0  0  0
   -2.2971    0.6212   -2.4911 H   0  0  0  0  0  0
   -1.6176   -0.5480    0.2512 H   0  0  0  0  0  0
   -2.3648    1.0307    0.0337 H   0  0  0  0  0  0
    0.2784    0.2799   -1.2988 H   0  0  0  0  0  0
   -0.4767    1.8468   -1.2662 H   0  0  0  0  0  0
   -0.3654    1.2768    1.4516 H   0  0  0  0  0  0
    0.0586    3.3975    0.4236 H   0  0  0  0  0  0
    1.6165    2.8910   -0.1941 H   0  0  0  0  0  0
    2.4568    2.6304    2.1583 H   0  0  0  0  0  0
    1.7921    4.2452    1.8941 H   0  0  0  0  0  0
    0.8438    3.0367    2.7759 H   0  0  0  0  0  0
   -0.0696   -0.9373    1.9456 H   0  0  0  0  0  0
    1.5724   -1.3149    2.3706 H   0  0  0  0  0  0
    0.2634   -1.9087   -0.3324 H   0  0  0  0  0  0
    0.7335   -3.0587    0.8959 H   0  0  0  0  0  0
    3.1072   -2.5155    0.6030 H   0  0  0  0  0  0
    2.2171   -0.5724   -1.5814 H   0  0  0  0  0  0
    3.8488   -0.8854   -1.0536 H   0  0  0  0  0  0
    3.4795    0.0786    1.1192 H   0  0  0  0  0  0
    2.9662    1.2278   -0.0747 H   0  0  0  0  0  0
    1.4707    0.3551    1.2266 N   0  3  1  0  0  0
    1.7641    0.7696    2.1191 H   0  0  0  0  0  0
  1  2  1  0  0  0
  1 15  1  0  0  0
  1 16  1  0  0  0
  1 17  1  0  0  0
  2  3  1  0  0  0
  2 18  1  0  0  0
  2 19  1  0  0  0
  3  4  1  0  0  0
  3 20  1  0  0  0
  3 21  1  0  0  0
  4  5  1  0  0  0
  4 22  1  0  0  0
  4 23  1  0  0  0
  5  6  1  0  0  0
  5 24  1  0  0  0
  5 25  1  0  0  0
  6  7  1  0  0  0
  6 26  1  0  0  0
  6 41  1  0  0  0
  7  8  1  0  0  0
  7 27  1  0  0  0
  7 28  1  0  0  0
  8 29  1  0  0  0
  8 30  1  0  0  0
  8 31  1  0  0  0
  9 10  1  0  0  0
  9 32  1  0  0  0
  9 33  1  0  0  0
  9 41  1  0  0  0
 10 11  1  0  0  0
 10 34  1  0  0  0
 10 35  1  0  0  0
 11 12  1  0  0  0
 11 13  1  0  0  0
 11 36  1  0  0  0
 13 14  1  0  0  0
 13 37  1  0  0  0
 13 38  1  0  0  0
 14 39  1  0  0  0
 14 40  1  0  0  0
 14 41  1  0  0  0
 41 42  1  0  0  0
M  CHG  1  41   1
M  END
> <energy>
6.24236

> <chiral flag>
0

> <version>
0

> <i_ionizer_Ion_state_n>
1

> <i_ionizer_Tot_Q>
1

> <s_ionizer_Ion_centers>
41

> <s_ionizer_Ion_types>
N5

> <s_ionizer_Ion_ctrs_in>
9

> <r_ionizer_Ionization_penalty>
0.00148639

> <r_ionizer_Ionization_penalty_charging>
0.00148639

> <r_ionizer_Ionization_penalty_neutral>
0

$$$$
ZINC001258434181
                    3D
 Structure written by MMmdl.
 49 49  0  0  1  0            999 V2000
   -5.2136   -1.7473   -0.6571 C   0  0  0  0  0  0
   -4.2205   -0.5980   -0.7523 C   0  0  0  0  0  0
   -2.8258   -1.1041   -1.1186 C   0  0  0  0  0  0
   -1.7733    0.0033   -1.2455 C   0  0  0  0  0  0
   -1.5422    0.7649    0.0672 C   0  0  0  0  0  0
   -0.2658    1.6472    0.0539 C   0  0  1  0  0  0
   -0.2807    2.5683    1.3004 C   0  0  0  0  0  0
    0.8660    3.5622    1.3780 C   0  0  0  0  0  0
    1.9386    1.3682   -0.9921 C   0  0  0  0  0  0
    3.2267    0.5661   -1.1835 C   0  0  0  0  0  0
    3.0029   -0.9274   -1.3943 C   0  0  0  0  0  0
    2.9480   -1.6925   -0.0725 C   0  0  0  0  0  0
    1.6930   -1.4555    0.7847 C   0  0  2  0  0  0
    1.8679   -2.1890    2.1249 C   0  0  0  0  0  0
    0.5586   -2.0659    0.1473 O   0  0  0  0  0  0
    1.3781    0.0478    1.0588 C   0  0  0  0  0  0
   -6.2063   -1.3711   -0.3907 H   0  0  0  0  0  0
   -5.2948   -2.2785   -1.6104 H   0  0  0  0  0  0
   -4.9072   -2.4658    0.1107 H   0  0  0  0  0  0
   -4.5660    0.1193   -1.5051 H   0  0  0  0  0  0
   -4.2004   -0.0773    0.2108 H   0  0  0  0  0  0
   -2.8778   -1.6394   -2.0749 H   0  0  0  0  0  0
   -2.4922   -1.8344   -0.3710 H   0  0  0  0  0  0
   -0.8432   -0.4670   -1.5834 H   0  0  0  0  0  0
   -2.0670    0.7089   -2.0323 H   0  0  0  0  0  0
   -2.4106    1.4103    0.2475 H   0  0  0  0  0  0
   -1.5073    0.0602    0.9061 H   0  0  0  0  0  0
   -0.3619    2.2997   -0.8257 H   0  0  0  0  0  0
   -0.3130    1.9836    2.2254 H   0  0  0  0  0  0
   -1.2131    3.1455    1.2871 H   0  0  0  0  0  0
    0.7090    4.2497    2.2158 H   0  0  0  0  0  0
    0.9340    4.1575    0.4627 H   0  0  0  0  0  0
    1.8220    3.0594    1.5434 H   0  0  0  0  0  0
    2.2262    2.3703   -0.6555 H   0  0  0  0  0  0
    1.4890    1.4962   -1.9857 H   0  0  0  0  0  0
    3.7375    0.9699   -2.0678 H   0  0  0  0  0  0
    3.9037    0.7383   -0.3385 H   0  0  0  0  0  0
    2.1069   -1.1167   -1.9964 H   0  0  0  0  0  0
    3.8544   -1.3202   -1.9644 H   0  0  0  0  0  0
    3.0155   -2.7619   -0.3138 H   0  0  0  0  0  0
    3.8451   -1.4518    0.5123 H   0  0  0  0  0  0
    2.7169   -1.7982    2.6942 H   0  0  0  0  0  0
    0.9649   -2.0998    2.7401 H   0  0  0  0  0  0
    2.0210   -3.2619    1.9621 H   0  0  0  0  0  0
    0.8126   -2.9604   -0.1325 H   0  0  0  0  0  0
    0.5843    0.0470    1.8147 H   0  0  0  0  0  0
    2.2348    0.5445    1.5320 H   0  0  0  0  0  0
    0.8583    0.6979   -0.2100 N   0  3  1  0  0  0
    0.4843   -0.0565   -0.7976 H   0  0  0  0  0  0
  1  2  1  0  0  0
  1 17  1  0  0  0
  1 18  1  0  0  0
  1 19  1  0  0  0
  2  3  1  0  0  0
  2 20  1  0  0  0
  2 21  1  0  0  0
  3  4  1  0  0  0
  3 22  1  0  0  0
  3 23  1  0  0  0
  4  5  1  0  0  0
  4 24  1  0  0  0
  4 25  1  0  0  0
  5  6  1  0  0  0
  5 26  1  0  0  0
  5 27  1  0  0  0
  6  7  1  0  0  0
  6 28  1  0  0  0
  6 48  1  0  0  0
  7  8  1  0  0  0
  7 29  1  0  0  0
  7 30  1  0  0  0
  8 31  1  0  0  0
  8 32  1  0  0  0
  8 33  1  0  0  0
  9 10  1  0  0  0
  9 34  1  0  0  0
  9 35  1  0  0  0
  9 48  1  0  0  0
 10 11  1  0  0  0
 10 36  1  0  0  0
 10 37  1  0  0  0
 11 12  1  0  0  0
 11 38  1  0  0  0
 11 39  1  0  0  0
 12 13  1  0  0  0
 12 40  1  0  0  0
 12 41  1  0  0  0
 13 14  1  0  0  0
 13 15  1  0  0  0
 13 16  1  0  0  0
 14 42  1  0  0  0
 14 43  1  0  0  0
 14 44  1  0  0  0
 15 45  1  0  0  0
 16 46  1  0  0  0
 16 47  1  0  0  0
 16 48  1  0  0  0
 48 49  1  0  0  0
M  CHG  1  48   1
M  END
> <energy>
50.874

> <chiral flag>
0

> <version>
0

> <i_ionizer_Ion_state_n>
1

> <i_ionizer_Tot_Q>
1

> <s_ionizer_Ion_centers>
48

> <s_ionizer_Ion_types>
N5

> <s_ionizer_Ion_ctrs_in>
9

> <r_ionizer_Ionization_penalty>
0.00148639

> <r_ionizer_Ionization_penalty_charging>
0.00148639

> <r_ionizer_Ionization_penalty_neutral>
0

$$$$
ZINC001258434183
                    3D
 Structure written by MMmdl.
 49 49  0  0  1  0            999 V2000
   -5.1011    0.8863   -1.0680 C   0  0  0  0  0  0
   -4.2639    0.1148   -0.0588 C   0  0  0  0  0  0
   -3.4224   -0.9717   -0.7370 C   0  0  0  0  0  0
   -2.5616   -1.7623    0.2582 C   0  0  0  0  0  0
   -1.2910   -1.0204    0.6991 C   0  0  0  0  0  0
   -0.1061   -1.1698   -0.2950 C   0  0  2  0  0  0
    0.6187   -2.5287   -0.0914 C   0  0  0  0  0  0
    1.5823   -2.8752   -1.2214 C   0  0  0  0  0  0
    0.4406    1.0414   -1.1155 C   0  0  0  0  0  0
    1.1966    2.3692   -1.0429 C   0  0  0  0  0  0
    2.7048    2.2355   -0.8794 C   0  0  0  0  0  0
    3.1031    2.1051    0.5896 C   0  0  0  0  0  0
    2.7154    0.7865    1.2765 C   0  0  2  0  0  0
    3.0936    0.8737    2.7597 C   0  0  0  0  0  0
    3.5137   -0.2603    0.7044 O   0  0  0  0  0  0
    1.2209    0.3858    1.1397 C   0  0  0  0  0  0
   -4.4665    1.3878   -1.8050 H   0  0  0  0  0  0
   -5.7873    0.2205   -1.6025 H   0  0  0  0  0  0
   -5.6983    1.6512   -0.5600 H   0  0  0  0  0  0
   -4.9315   -0.3447    0.6787 H   0  0  0  0  0  0
   -3.6248    0.8198    0.4822 H   0  0  0  0  0  0
   -2.7970   -0.5311   -1.5230 H   0  0  0  0  0  0
   -4.1044   -1.6736   -1.2355 H   0  0  0  0  0  0
   -2.2939   -2.7226   -0.1944 H   0  0  0  0  0  0
   -3.1651   -1.9929    1.1447 H   0  0  0  0  0  0
   -0.9918   -1.4134    1.6792 H   0  0  0  0  0  0
   -1.5352    0.0356    0.8558 H   0  0  0  0  0  0
   -0.5161   -1.2064   -1.3134 H   0  0  0  0  0  0
   -0.1189   -3.3370   -0.0244 H   0  0  0  0  0  0
    1.1624   -2.5388    0.8616 H   0  0  0  0  0  0
    2.0902   -3.8205   -1.0026 H   0  0  0  0  0  0
    2.3500   -2.1113   -1.3552 H   0  0  0  0  0  0
    1.0480   -2.9891   -2.1698 H   0  0  0  0  0  0
   -0.6227    1.2668   -0.9536 H   0  0  0  0  0  0
    0.5221    0.6787   -2.1491 H   0  0  0  0  0  0
    0.7829    2.9861   -0.2352 H   0  0  0  0  0  0
    0.9938    2.9155   -1.9732 H   0  0  0  0  0  0
    3.1705    3.1518   -1.2639 H   0  0  0  0  0  0
    3.1023    1.4091   -1.4769 H   0  0  0  0  0  0
    4.1956    2.2181    0.6388 H   0  0  0  0  0  0
    2.6775    2.9486    1.1482 H   0  0  0  0  0  0
    2.5217    1.6527    3.2747 H   0  0  0  0  0  0
    4.1615    1.0893    2.8792 H   0  0  0  0  0  0
    2.9145   -0.0798    3.2682 H   0  0  0  0  0  0
    3.0006   -0.5507   -0.0774 H   0  0  0  0  0  0
    0.5576    1.1830    1.4952 H   0  0  0  0  0  0
    1.0787   -0.4609    1.8231 H   0  0  0  0  0  0
    0.9203   -0.0827   -0.2749 N   0  3  1  0  0  0
    1.7896   -0.4485   -0.6808 H   0  0  0  0  0  0
  1  2  1  0  0  0
  1 17  1  0  0  0
  1 18  1  0  0  0
  1 19  1  0  0  0
  2  3  1  0  0  0
  2 20  1  0  0  0
  2 21  1  0  0  0
  3  4  1  0  0  0
  3 22  1  0  0  0
  3 23  1  0  0  0
  4  5  1  0  0  0
  4 24  1  0  0  0
  4 25  1  0  0  0
  5  6  1  0  0  0
  5 26  1  0  0  0
  5 27  1  0  0  0
  6  7  1  0  0  0
  6 28  1  0  0  0
  6 48  1  0  0  0
  7  8  1  0  0  0
  7 29  1  0  0  0
  7 30  1  0  0  0
  8 31  1  0  0  0
  8 32  1  0  0  0
  8 33  1  0  0  0
  9 10  1  0  0  0
  9 34  1  0  0  0
  9 35  1  0  0  0
  9 48  1  0  0  0
 10 11  1  0  0  0
 10 36  1  0  0  0
 10 37  1  0  0  0
 11 12  1  0  0  0
 11 38  1  0  0  0
 11 39  1  0  0  0
 12 13  1  0  0  0
 12 40  1  0  0  0
 12 41  1  0  0  0
 13 14  1  0  0  0
 13 15  1  0  0  0
 13 16  1  0  0  0
 14 42  1  0  0  0
 14 43  1  0  0  0
 14 44  1  0  0  0
 15 45  1  0  0  0
 16 46  1  0  0  0
 16 47  1  0  0  0
 16 48  1  0  0  0
 48 49  1  0  0  0
M  CHG  1  48   1
M  END
> <energy>
44.6258

> <chiral flag>
0

> <version>
0

> <i_ionizer_Ion_state_n>
1

> <i_ionizer_Tot_Q>
1

> <s_ionizer_Ion_centers>
48

> <s_ionizer_Ion_types>
N5

> <s_ionizer_Ion_ctrs_in>
9

> <r_ionizer_Ionization_penalty>
0.00148639

> <r_ionizer_Ionization_penalty_charging>
0.00148639

> <r_ionizer_Ionization_penalty_neutral>
0

$$$$
ZINC001258434185
                    3D
 Structure written by MMmdl.
 49 49  0  0  1  0            999 V2000
   -4.1029    2.5707    0.7044 C   0  0  0  0  0  0
   -3.4678    1.5733   -0.2508 C   0  0  0  0  0  0
   -2.8585    0.3849    0.4944 C   0  0  0  0  0  0
   -2.2152   -0.6014   -0.4852 C   0  0  0  0  0  0
   -1.4662   -1.7443    0.2086 C   0  0  0  0  0  0
   -0.1452   -1.3725    0.9392 C   0  0  1  0  0  0
    0.5091   -2.6271    1.5764 C   0  0  0  0  0  0
   -0.3278   -3.2827    2.6674 C   0  0  0  0  0  0
    1.1242   -1.2480   -1.2051 C   0  0  0  0  0  0
    2.6159   -1.3546   -1.5227 C   0  0  0  0  0  0
    3.3051   -0.0524   -1.9026 C   0  0  0  0  0  0
    3.2058    1.0680   -0.8699 C   0  0  0  0  0  0
    1.7901    1.6291   -0.6589 C   0  0  1  0  0  0
    1.8858    3.0316   -0.0325 C   0  0  0  0  0  0
    1.1314    1.8025   -1.9230 O   0  0  0  0  0  0
    0.9008    0.7484    0.2660 C   0  0  0  0  0  0
   -4.9242    2.1123    1.2643 H   0  0  0  0  0  0
   -4.5047    3.4231    0.1484 H   0  0  0  0  0  0
   -3.3679    2.9509    1.4211 H   0  0  0  0  0  0
   -4.2234    1.2199   -0.9617 H   0  0  0  0  0  0
   -2.6899    2.0835   -0.8319 H   0  0  0  0  0  0
   -3.6364   -0.1321    1.0689 H   0  0  0  0  0  0
   -2.1223    0.7498    1.2170 H   0  0  0  0  0  0
   -1.5560   -0.0778   -1.1844 H   0  0  0  0  0  0
   -3.0115   -1.0429   -1.0989 H   0  0  0  0  0  0
   -2.1570   -2.1979    0.9290 H   0  0  0  0  0  0
   -1.2711   -2.5273   -0.5347 H   0  0  0  0  0  0
   -0.4040   -0.7155    1.7810 H   0  0  0  0  0  0
    1.4688   -2.3413    2.0269 H   0  0  0  0  0  0
    0.7349   -3.3776    0.8090 H   0  0  0  0  0  0
    0.2562   -4.0640    3.1648 H   0  0  0  0  0  0
   -1.2261   -3.7552    2.2613 H   0  0  0  0  0  0
   -0.6288   -2.5535    3.4256 H   0  0  0  0  0  0
    0.7508   -2.2761   -1.2686 H   0  0  0  0  0  0
    0.5811   -0.6894   -1.9740 H   0  0  0  0  0  0
    3.1428   -1.8120   -0.6753 H   0  0  0  0  0  0
    2.7364   -2.0534   -2.3611 H   0  0  0  0  0  0
    4.3679   -0.2704   -2.0702 H   0  0  0  0  0  0
    2.9176    0.2919   -2.8695 H   0  0  0  0  0  0
    3.6368    0.7452    0.0853 H   0  0  0  0  0  0
    3.8519    1.8759   -1.2391 H   0  0  0  0  0  0
    0.8882    3.4624    0.1095 H   0  0  0  0  0  0
    2.4264    3.7204   -0.6913 H   0  0  0  0  0  0
    2.3968    3.0087    0.9361 H   0  0  0  0  0  0
    1.7027    2.3590   -2.4787 H   0  0  0  0  0  0
    1.1904    0.9587    1.3049 H   0  0  0  0  0  0
   -0.1233    1.1145    0.1458 H   0  0  0  0  0  0
    1.0056   -0.7380    0.2129 N   0  3  1  0  0  0
    1.8665   -1.0038    0.7053 H   0  0  0  0  0  0
  1  2  1  0  0  0
  1 17  1  0  0  0
  1 18  1  0  0  0
  1 19  1  0  0  0
  2  3  1  0  0  0
  2 20  1  0  0  0
  2 21  1  0  0  0
  3  4  1  0  0  0
  3 22  1  0  0  0
  3 23  1  0  0  0
  4  5  1  0  0  0
  4 24  1  0  0  0
  4 25  1  0  0  0
  5  6  1  0  0  0
  5 26  1  0  0  0
  5 27  1  0  0  0
  6  7  1  0  0  0
  6 28  1  0  0  0
  6 48  1  0  0  0
  7  8  1  0  0  0
  7 29  1  0  0  0
  7 30  1  0  0  0
  8 31  1  0  0  0
  8 32  1  0  0  0
  8 33  1  0  0  0
  9 10  1  0  0  0
  9 34  1  0  0  0
  9 35  1  0  0  0
  9 48  1  0  0  0
 10 11  1  0  0  0
 10 36  1  0  0  0
 10 37  1  0  0  0
 11 12  1  0  0  0
 11 38  1  0  0  0
 11 39  1  0  0  0
 12 13  1  0  0  0
 12 40  1  0  0  0
 12 41  1  0  0  0
 13 14  1  0  0  0
 13 15  1  0  0  0
 13 16  1  0  0  0
 14 42  1  0  0  0
 14 43  1  0  0  0
 14 44  1  0  0  0
 15 45  1  0  0  0
 16 46  1  0  0  0
 16 47  1  0  0  0
 16 48  1  0  0  0
 48 49  1  0  0  0
M  CHG  1  48   1
M  END
> <energy>
49.1676

> <chiral flag>
0

> <version>
0

> <i_ionizer_Ion_state_n>
1

> <i_ionizer_Tot_Q>
1

> <s_ionizer_Ion_centers>
48

> <s_ionizer_Ion_types>
N5

> <s_ionizer_Ion_ctrs_in>
9

> <r_ionizer_Ionization_penalty>
0.00148639

> <r_ionizer_Ionization_penalty_charging>
0.00148639

> <r_ionizer_Ionization_penalty_neutral>
0

$$$$
ZINC001258434186
                    3D
 Structure written by MMmdl.
 49 49  0  0  1  0            999 V2000
   -3.3793   -2.2719    1.5600 C   0  0  0  0  0  0
   -3.9304   -1.9793    0.1714 C   0  0  0  0  0  0
   -3.3850   -0.6706   -0.4063 C   0  0  0  0  0  0
   -2.0124   -0.8501   -1.0721 C   0  0  0  0  0  0
   -1.3866    0.4954   -1.4752 C   0  0  0  0  0  0
   -0.6303    1.2072   -0.3173 C   0  0  2  0  0  0
   -0.2871    2.6741   -0.6720 C   0  0  0  0  0  0
   -1.5079    3.5858   -0.7311 C   0  0  0  0  0  0
    0.9675    0.7616    1.4855 C   0  0  0  0  0  0
    1.4945   -0.4533    2.2397 C   0  0  0  0  0  0
    2.9418   -0.8464    1.9753 C   0  0  0  0  0  0
    3.5669   -0.4873    0.6304 C   0  0  0  0  0  0
    2.7200   -0.6712   -0.6363 C   0  0  1  0  0  0
    3.6560   -0.7056   -1.8556 C   0  0  0  0  0  0
    2.0417   -1.9306   -0.6013 O   0  0  0  0  0  0
    1.6818    0.4639   -0.8364 C   0  0  0  0  0  0
   -3.6472   -1.4741    2.2594 H   0  0  0  0  0  0
   -3.7954   -3.2125    1.9394 H   0  0  0  0  0  0
   -2.2884   -2.3682    1.5518 H   0  0  0  0  0  0
   -5.0239   -1.9083    0.2408 H   0  0  0  0  0  0
   -3.7078   -2.8134   -0.4995 H   0  0  0  0  0  0
   -4.0886   -0.3011   -1.1627 H   0  0  0  0  0  0
   -3.3422    0.0914    0.3787 H   0  0  0  0  0  0
   -2.1522   -1.4508   -1.9792 H   0  0  0  0  0  0
   -1.3343   -1.4157   -0.4257 H   0  0  0  0  0  0
   -0.7135    0.3255   -2.3225 H   0  0  0  0  0  0
   -2.1801    1.1442   -1.8636 H   0  0  0  0  0  0
   -1.3361    1.2343    0.5259 H   0  0  0  0  0  0
    0.2388    2.7269   -1.6316 H   0  0  0  0  0  0
    0.3892    3.0914    0.0830 H   0  0  0  0  0  0
   -2.1240    3.4824    0.1671 H   0  0  0  0  0  0
   -2.1285    3.3697   -1.6045 H   0  0  0  0  0  0
   -1.1880    4.6300   -0.8015 H   0  0  0  0  0  0
    1.6858    1.5925    1.5017 H   0  0  0  0  0  0
    0.0945    1.1026    2.0570 H   0  0  0  0  0  0
    1.3933   -0.2634    3.3162 H   0  0  0  0  0  0
    0.8448   -1.3146    2.0445 H   0  0  0  0  0  0
    3.0417   -1.9280    2.1417 H   0  0  0  0  0  0
    3.5671   -0.3870    2.7565 H   0  0  0  0  0  0
    3.9288    0.5497    0.6732 H   0  0  0  0  0  0
    4.4704   -1.1102    0.5484 H   0  0  0  0  0  0
    4.2635    0.2013   -1.9218 H   0  0  0  0  0  0
    4.3287   -1.5708   -1.8113 H   0  0  0  0  0  0
    3.0888   -0.8089   -2.7860 H   0  0  0  0  0  0
    1.1387   -1.7261   -0.2829 H   0  0  0  0  0  0
    2.1794    1.4409   -0.8131 H   0  0  0  0  0  0
    1.2929    0.3423   -1.8538 H   0  0  0  0  0  0
    0.5365    0.3552    0.1232 N   0  3  2  0  0  0
    0.2313   -0.6247    0.1533 H   0  0  0  0  0  0
  1  2  1  0  0  0
  1 17  1  0  0  0
  1 18  1  0  0  0
  1 19  1  0  0  0
  2  3  1  0  0  0
  2 20  1  0  0  0
  2 21  1  0  0  0
  3  4  1  0  0  0
  3 22  1  0  0  0
  3 23  1  0  0  0
  4  5  1  0  0  0
  4 24  1  0  0  0
  4 25  1  0  0  0
  5  6  1  0  0  0
  5 26  1  0  0  0
  5 27  1  0  0  0
  6  7  1  0  0  0
  6 28  1  0  0  0
  6 48  1  0  0  0
  7  8  1  0  0  0
  7 29  1  0  0  0
  7 30  1  0  0  0
  8 31  1  0  0  0
  8 32  1  0  0  0
  8 33  1  0  0  0
  9 10  1  0  0  0
  9 34  1  0  0  0
  9 35  1  0  0  0
  9 48  1  0  0  0
 10 11  1  0  0  0
 10 36  1  0  0  0
 10 37  1  0  0  0
 11 12  1  0  0  0
 11 38  1  0  0  0
 11 39  1  0  0  0
 12 13  1  0  0  0
 12 40  1  0  0  0
 12 41  1  0  0  0
 13 14  1  0  0  0
 13 15  1  0  0  0
 13 16  1  0  0  0
 14 42  1  0  0  0
 14 43  1  0  0  0
 14 44  1  0  0  0
 15 45  1  0  0  0
 16 46  1  0  0  0
 16 47  1  0  0  0
 16 48  1  0  0  0
 48 49  1  0  0  0
M  CHG  1  48   1
M  END
> <energy>
46.4654

> <chiral flag>
0

> <version>
0

> <i_ionizer_Ion_state_n>
1

> <i_ionizer_Tot_Q>
1

> <s_ionizer_Ion_centers>
48

> <s_ionizer_Ion_types>
N5

> <s_ionizer_Ion_ctrs_in>
9

> <r_ionizer_Ionization_penalty>
0.00148639

> <r_ionizer_Ionization_penalty_charging>
0.00148639

> <r_ionizer_Ionization_penalty_neutral>
0

$$$$
ZINC001258434539
                    3D
 Structure written by MMmdl.
 42 42  0  0  1  0            999 V2000
   -3.1759   -2.8449   -0.8347 C   0  0  0  0  0  0
   -2.5654   -1.6081   -1.4765 C   0  0  0  0  0  0
   -2.7280   -0.3370   -0.6405 C   0  0  0  0  0  0
   -2.0436   -0.4103    0.7294 C   0  0  0  0  0  0
   -1.5758    0.9703    1.2266 C   0  0  0  0  0  0
   -0.2635    1.4859    0.5761 C   0  0  1  0  0  0
    0.0425    2.9412    0.9973 C   0  0  0  0  0  0
   -0.8927    3.9728    0.3635 C   0  0  0  0  0  0
    2.0367    0.6422    0.2273 C   0  0  0  0  0  0
    2.8333   -0.6650    0.3678 C   0  0  0  0  0  0
    3.1448   -0.8706    1.6754 F   0  0  0  0  0  0
    2.2296   -1.8932   -0.3681 C   0  0  0  0  0  0
    3.6380   -2.2312   -0.8742 C   0  0  0  0  0  0
    4.0447   -0.7774   -0.5937 C   0  0  0  0  0  0
   -4.2332   -2.6856   -0.5943 H   0  0  0  0  0  0
   -2.6571   -3.1222    0.0887 H   0  0  0  0  0  0
   -3.1057   -3.6984   -1.5178 H   0  0  0  0  0  0
   -1.5022   -1.7869   -1.6722 H   0  0  0  0  0  0
   -3.0433   -1.4459   -2.4513 H   0  0  0  0  0  0
   -2.3433    0.5028   -1.2302 H   0  0  0  0  0  0
   -3.7963   -0.1412   -0.4818 H   0  0  0  0  0  0
   -2.7682   -0.8106    1.4525 H   0  0  0  0  0  0
   -1.2040   -1.1139    0.7149 H   0  0  0  0  0  0
   -2.3829    1.6882    1.0700 H   0  0  0  0  0  0
   -1.4357    0.9050    2.3102 H   0  0  0  0  0  0
   -0.3725    1.4415   -0.5165 H   0  0  0  0  0  0
   -0.0075    3.0363    2.0884 H   0  0  0  0  0  0
    1.0607    3.2098    0.7015 H   0  0  0  0  0  0
   -0.5830    4.9858    0.6525 H   0  0  0  0  0  0
   -1.9318    3.8435    0.6829 H   0  0  0  0  0  0
   -0.8636    3.9043   -0.7305 H   0  0  0  0  0  0
    2.6509    1.4812    0.5777 H   0  0  0  0  0  0
    1.8216    0.8200   -0.8379 H   0  0  0  0  0  0
    1.5176   -1.6455   -1.1652 H   0  0  0  0  0  0
    1.7744   -2.6476    0.2773 H   0  0  0  0  0  0
    3.7034   -2.5377   -1.9175 H   0  0  0  0  0  0
    4.1700   -2.9609   -0.2590 H   0  0  0  0  0  0
    3.9967   -0.1368   -1.4835 H   0  0  0  0  0  0
    5.0212   -0.6606   -0.1177 H   0  0  0  0  0  0
    0.7871    0.5300    1.0229 N   0  3  0  0  0  0
    1.0063    0.7190    2.0080 H   0  0  0  0  0  0
    0.4231   -0.4256    0.9305 H   0  0  0  0  0  0
  1  2  1  0  0  0
  1 15  1  0  0  0
  1 16  1  0  0  0
  1 17  1  0  0  0
  2  3  1  0  0  0
  2 18  1  0  0  0
  2 19  1  0  0  0
  3  4  1  0  0  0
  3 20  1  0  0  0
  3 21  1  0  0  0
  4  5  1  0  0  0
  4 22  1  0  0  0
  4 23  1  0  0  0
  5  6  1  0  0  0
  5 24  1  0  0  0
  5 25  1  0  0  0
  6  7  1  0  0  0
  6 26  1  0  0  0
  6 40  1  0  0  0
  7  8  1  0  0  0
  7 27  1  0  0  0
  7 28  1  0  0  0
  8 29  1  0  0  0
  8 30  1  0  0  0
  8 31  1  0  0  0
  9 10  1  0  0  0
  9 32  1  0  0  0
  9 33  1  0  0  0
  9 40  1  0  0  0
 10 11  1  0  0  0
 10 12  1  0  0  0
 10 14  1  0  0  0
 12 13  1  0  0  0
 12 34  1  0  0  0
 12 35  1  0  0  0
 13 14  1  0  0  0
 13 36  1  0  0  0
 13 37  1  0  0  0
 14 38  1  0  0  0
 14 39  1  0  0  0
 40 41  1  0  0  0
 40 42  1  0  0  0
M  CHG  1  40   1
M  END
> <energy>
34.8989

> <chiral flag>
0

> <version>
0

> <i_ionizer_Ion_state_n>
1

> <i_ionizer_Tot_Q>
1

> <s_ionizer_Ion_centers>
40

> <s_ionizer_Ion_types>
N5

> <s_ionizer_Ion_ctrs_in>
9

> <r_ionizer_Ionization_penalty>
0.000148807

> <r_ionizer_Ionization_penalty_charging>
0.000148807

> <r_ionizer_Ionization_penalty_neutral>
0

$$$$
ZINC001258434540
                    3D
 Structure written by MMmdl.
 42 42  0  0  1  0            999 V2000
   -3.6594    2.8067   -0.1171 C   0  0  0  0  0  0
   -3.7169    1.3326    0.2521 C   0  0  0  0  0  0
   -2.5279    0.8835    1.1077 C   0  0  0  0  0  0
   -1.2171    0.6795    0.3412 C   0  0  0  0  0  0
   -1.2627   -0.5191   -0.6211 C   0  0  0  0  0  0
   -0.2331   -1.6448   -0.3684 C   0  0  2  0  0  0
   -0.5735   -2.5264    0.8599 C   0  0  0  0  0  0
   -0.1953   -2.0010    2.2401 C   0  0  0  0  0  0
    1.7828   -0.9916   -1.6084 C   0  0  0  0  0  0
    3.0135   -0.0634   -1.6048 C   0  0  0  0  0  0
    3.6277   -0.1939   -2.8120 F   0  0  0  0  0  0
    3.9950   -0.1468   -0.3944 C   0  0  0  0  0  0
    3.2770    1.0671    0.2213 C   0  0  0  0  0  0
    2.7581    1.4131   -1.1854 C   0  0  0  0  0  0
   -4.5766    3.0987   -0.6401 H   0  0  0  0  0  0
   -3.5715    3.4319    0.7795 H   0  0  0  0  0  0
   -2.8136    3.0262   -0.7753 H   0  0  0  0  0  0
   -4.6358    1.1642    0.8256 H   0  0  0  0  0  0
   -3.8024    0.7300   -0.6574 H   0  0  0  0  0  0
   -2.7951   -0.0565    1.6060 H   0  0  0  0  0  0
   -2.3599    1.6175    1.9050 H   0  0  0  0  0  0
   -0.9794    1.5869   -0.2250 H   0  0  0  0  0  0
   -0.4065    0.5690    1.0682 H   0  0  0  0  0  0
   -1.1071   -0.1314   -1.6374 H   0  0  0  0  0  0
   -2.2630   -0.9701   -0.6359 H   0  0  0  0  0  0
   -0.3067   -2.3283   -1.2260 H   0  0  0  0  0  0
   -1.6461   -2.7619    0.8543 H   0  0  0  0  0  0
   -0.0557   -3.4859    0.7287 H   0  0  0  0  0  0
   -0.3710   -2.7844    2.9851 H   0  0  0  0  0  0
   -0.7971   -1.1398    2.5318 H   0  0  0  0  0  0
    0.8614   -1.7290    2.3064 H   0  0  0  0  0  0
    2.0963   -1.9913   -1.9351 H   0  0  0  0  0  0
    1.0785   -0.6139   -2.3567 H   0  0  0  0  0  0
    3.9722   -1.0634    0.2021 H   0  0  0  0  0  0
    5.0347    0.0609   -0.6722 H   0  0  0  0  0  0
    2.4865    0.8155    0.9359 H   0  0  0  0  0  0
    3.9210    1.8189    0.6840 H   0  0  0  0  0  0
    3.3992    2.1243   -1.7206 H   0  0  0  0  0  0
    1.7243    1.7668   -1.2370 H   0  0  0  0  0  0
    1.1487   -1.1145   -0.2702 N   0  3  0  0  0  0
    1.1195   -0.1879    0.1713 H   0  0  0  0  0  0
    1.7099   -1.7513    0.3075 H   0  0  0  0  0  0
  1  2  1  0  0  0
  1 15  1  0  0  0
  1 16  1  0  0  0
  1 17  1  0  0  0
  2  3  1  0  0  0
  2 18  1  0  0  0
  2 19  1  0  0  0
  3  4  1  0  0  0
  3 20  1  0  0  0
  3 21  1  0  0  0
  4  5  1  0  0  0
  4 22  1  0  0  0
  4 23  1  0  0  0
  5  6  1  0  0  0
  5 24  1  0  0  0
  5 25  1  0  0  0
  6  7  1  0  0  0
  6 26  1  0  0  0
  6 40  1  0  0  0
  7  8  1  0  0  0
  7 27  1  0  0  0
  7 28  1  0  0  0
  8 29  1  0  0  0
  8 30  1  0  0  0
  8 31  1  0  0  0
  9 10  1  0  0  0
  9 32  1  0  0  0
  9 33  1  0  0  0
  9 40  1  0  0  0
 10 11  1  0  0  0
 10 12  1  0  0  0
 10 14  1  0  0  0
 12 13  1  0  0  0
 12 34  1  0  0  0
 12 35  1  0  0  0
 13 14  1  0  0  0
 13 36  1  0  0  0
 13 37  1  0  0  0
 14 38  1  0  0  0
 14 39  1  0  0  0
 40 41  1  0  0  0
 40 42  1  0  0  0
M  CHG  1  40   1
M  END
> <energy>
42.0187

> <chiral flag>
0

> <version>
0

> <i_ionizer_Ion_state_n>
1

> <i_ionizer_Tot_Q>
1

> <s_ionizer_Ion_centers>
40

> <s_ionizer_Ion_types>
N5

> <s_ionizer_Ion_ctrs_in>
9

> <r_ionizer_Ionization_penalty>
0.000148807

> <r_ionizer_Ionization_penalty_charging>
0.000148807

> <r_ionizer_Ionization_penalty_neutral>
0

$$$$
ZINC001258434627
                    3D
 Structure written by MMmdl.
 49 49  0  0  1  0            999 V2000
    0.3841   -1.0971    4.8912 C   0  0  0  0  0  0
   -1.0460   -0.5841    4.8013 C   0  0  0  0  0  0
   -1.8315   -1.1706    3.6265 C   0  0  0  0  0  0
   -1.3073   -0.7276    2.2607 C   0  0  0  0  0  0
   -2.1681   -1.2965    1.1144 C   0  0  0  0  0  0
   -1.4615   -1.3794   -0.2595 C   0  0  2  0  0  0
   -0.6528   -2.6863   -0.4480 C   0  0  0  0  0  0
    0.4631   -2.9636    0.5468 C   0  0  0  0  0  0
    0.2768   -0.0777   -1.4998 C   0  0  0  0  0  0
    0.8401    1.3738   -1.6087 C   0  0  0  0  0  0
    0.9247    1.9155   -0.2742 O   0  0  0  0  0  0
   -0.1368    2.2621   -2.4117 C   0  0  0  0  0  0
    0.5869    3.4130   -3.1020 C   0  0  0  0  0  0
    1.6321    2.9050   -4.0983 C   0  0  0  0  0  0
    2.3052    1.5962   -3.6730 C   0  0  0  0  0  0
    2.2755    1.4110   -2.1653 C   0  0  0  0  0  0
    0.9914   -0.7518    4.0483 H   0  0  0  0  0  0
    0.8598   -0.7336    5.8095 H   0  0  0  0  0  0
    0.4083   -2.1929    4.9090 H   0  0  0  0  0  0
   -1.0386    0.5103    4.7449 H   0  0  0  0  0  0
   -1.5643   -0.8512    5.7277 H   0  0  0  0  0  0
   -1.8159   -2.2683    3.6884 H   0  0  0  0  0  0
   -2.8789   -0.8595    3.7199 H   0  0  0  0  0  0
   -0.2661   -1.0332    2.1551 H   0  0  0  0  0  0
   -1.3095    0.3708    2.2013 H   0  0  0  0  0  0
   -2.5616   -2.2859    1.3806 H   0  0  0  0  0  0
   -3.0439   -0.6409    1.0085 H   0  0  0  0  0  0
   -2.2555   -1.4415   -1.0165 H   0  0  0  0  0  0
   -0.2347   -2.7138   -1.4630 H   0  0  0  0  0  0
   -1.3533   -3.5334   -0.4143 H   0  0  0  0  0  0
    0.0581   -3.1957    1.5350 H   0  0  0  0  0  0
    1.1505   -2.1195    0.6342 H   0  0  0  0  0  0
    1.0398   -3.8378    0.2307 H   0  0  0  0  0  0
    1.0889   -0.7425   -1.1916 H   0  0  0  0  0  0
   -0.0984   -0.4285   -2.4678 H   0  0  0  0  0  0
    0.2789    1.3985    0.2516 H   0  0  0  0  0  0
   -0.6471    1.6761   -3.1852 H   0  0  0  0  0  0
   -0.9128    2.6735   -1.7562 H   0  0  0  0  0  0
   -0.1341    4.0503   -3.6280 H   0  0  0  0  0  0
    1.0706    4.0463   -2.3461 H   0  0  0  0  0  0
    1.1649    2.7518   -5.0785 H   0  0  0  0  0  0
    2.3922    3.6849   -4.2426 H   0  0  0  0  0  0
    1.7988    0.7488   -4.1528 H   0  0  0  0  0  0
    3.3411    1.5869   -4.0326 H   0  0  0  0  0  0
    2.8248    0.5043   -1.8834 H   0  0  0  0  0  0
    2.8316    2.2355   -1.6998 H   0  0  0  0  0  0
   -0.7925   -0.0584   -0.4516 N   0  3  0  0  0  0
   -1.5039    0.6294   -0.7255 H   0  0  0  0  0  0
   -0.3688    0.2240    0.4400 H   0  0  0  0  0  0
  1  2  1  0  0  0
  1 17  1  0  0  0
  1 18  1  0  0  0
  1 19  1  0  0  0
  2  3  1  0  0  0
  2 20  1  0  0  0
  2 21  1  0  0  0
  3  4  1  0  0  0
  3 22  1  0  0  0
  3 23  1  0  0  0
  4  5  1  0  0  0
  4 24  1  0  0  0
  4 25  1  0  0  0
  5  6  1  0  0  0
  5 26  1  0  0  0
  5 27  1  0  0  0
  6  7  1  0  0  0
  6 28  1  0  0  0
  6 47  1  0  0  0
  7  8  1  0  0  0
  7 29  1  0  0  0
  7 30  1  0  0  0
  8 31  1  0  0  0
  8 32  1  0  0  0
  8 33  1  0  0  0
  9 10  1  0  0  0
  9 34  1  0  0  0
  9 35  1  0  0  0
  9 47  1  0  0  0
 10 11  1  0  0  0
 10 12  1  0  0  0
 10 16  1  0  0  0
 11 36  1  0  0  0
 12 13  1  0  0  0
 12 37  1  0  0  0
 12 38  1  0  0  0
 13 14  1  0  0  0
 13 39  1  0  0  0
 13 40  1  0  0  0
 14 15  1  0  0  0
 14 41  1  0  0  0
 14 42  1  0  0  0
 15 16  1  0  0  0
 15 43  1  0  0  0
 15 44  1  0  0  0
 16 45  1  0  0  0
 16 46  1  0  0  0
 47 48  1  0  0  0
 47 49  1  0  0  0
M  CHG  1  47   1
M  END
> <energy>
40.3783

> <chiral flag>
0

> <version>
0

> <i_ionizer_Ion_state_n>
1

> <i_ionizer_Tot_Q>
1

> <s_ionizer_Ion_centers>
47

> <s_ionizer_Ion_types>
N5

> <s_ionizer_Ion_ctrs_in>
9

> <r_ionizer_Ionization_penalty>
0.000148807

> <r_ionizer_Ionization_penalty_charging>
0.000148807

> <r_ionizer_Ionization_penalty_neutral>
0

$$$$
ZINC001258434630
                    3D
 Structure written by MMmdl.
 49 49  0  0  1  0            999 V2000
   -2.5967    2.8413    0.7525 C   0  0  0  0  0  0
   -2.9749    1.4558    0.2531 C   0  0  0  0  0  0
   -2.2557    1.0896   -1.0486 C   0  0  0  0  0  0
   -2.6705   -0.2926   -1.5615 C   0  0  0  0  0  0
   -1.6214   -1.4043   -1.4518 C   0  0  0  0  0  0
   -1.2589   -1.8754   -0.0229 C   0  0  1  0  0  0
   -0.7158   -3.3252   -0.0204 C   0  0  0  0  0  0
   -1.7807   -4.3724   -0.3247 C   0  0  0  0  0  0
    1.0104   -0.8649    0.1060 C   0  0  0  0  0  0
    1.9621    0.0806    0.9017 C   0  0  0  0  0  0
    2.0630   -0.4192    2.2492 O   0  0  0  0  0  0
    3.3696    0.0049    0.2630 C   0  0  0  0  0  0
    4.1487    1.3101    0.4028 C   0  0  0  0  0  0
    3.4229    2.4825   -0.2614 C   0  0  0  0  0  0
    1.8993    2.3696   -0.2064 C   0  0  0  0  0  0
    1.4411    1.5313    0.9793 C   0  0  0  0  0  0
   -1.5262    2.9139    0.9633 H   0  0  0  0  0  0
   -3.1362    3.0659    1.6781 H   0  0  0  0  0  0
   -2.8526    3.6122    0.0188 H   0  0  0  0  0  0
   -2.7522    0.7177    1.0293 H   0  0  0  0  0  0
   -4.0586    1.4286    0.0930 H   0  0  0  0  0  0
   -1.1695    1.1611   -0.9343 H   0  0  0  0  0  0
   -2.5343    1.8318   -1.8099 H   0  0  0  0  0  0
   -2.9031   -0.1912   -2.6308 H   0  0  0  0  0  0
   -3.6036   -0.6231   -1.0920 H   0  0  0  0  0  0
   -2.0338   -2.2531   -2.0093 H   0  0  0  0  0  0
   -0.7280   -1.1163   -2.0125 H   0  0  0  0  0  0
   -2.1837   -1.8807    0.5667 H   0  0  0  0  0  0
    0.1015   -3.4303   -0.7438 H   0  0  0  0  0  0
   -0.2960   -3.5637    0.9636 H   0  0  0  0  0  0
   -1.3470   -5.3752   -0.2585 H   0  0  0  0  0  0
   -2.1897   -4.2580   -1.3307 H   0  0  0  0  0  0
   -2.6050   -4.3105    0.3931 H   0  0  0  0  0  0
    0.9464   -0.4940   -0.9212 H   0  0  0  0  0  0
    1.4752   -1.8584    0.0891 H   0  0  0  0  0  0
    1.2203   -0.2037    2.6856 H   0  0  0  0  0  0
    3.9483   -0.8100    0.7145 H   0  0  0  0  0  0
    3.2895   -0.2157   -0.8093 H   0  0  0  0  0  0
    4.3056    1.5322    1.4663 H   0  0  0  0  0  0
    5.1447    1.2004   -0.0415 H   0  0  0  0  0  0
    3.7313    2.5672   -1.3116 H   0  0  0  0  0  0
    3.7464    3.4132    0.2203 H   0  0  0  0  0  0
    1.4596    3.3712   -0.1501 H   0  0  0  0  0  0
    1.5326    1.9214   -1.1361 H   0  0  0  0  0  0
    0.3483    1.5476    1.0435 H   0  0  0  0  0  0
    1.7840    2.0039    1.9099 H   0  0  0  0  0  0
   -0.3462   -0.9534    0.7313 N   0  3  0  0  0  0
   -0.7640   -0.0156    0.7487 H   0  0  0  0  0  0
   -0.2453   -1.3010    1.6922 H   0  0  0  0  0  0
  1  2  1  0  0  0
  1 17  1  0  0  0
  1 18  1  0  0  0
  1 19  1  0  0  0
  2  3  1  0  0  0
  2 20  1  0  0  0
  2 21  1  0  0  0
  3  4  1  0  0  0
  3 22  1  0  0  0
  3 23  1  0  0  0
  4  5  1  0  0  0
  4 24  1  0  0  0
  4 25  1  0  0  0
  5  6  1  0  0  0
  5 26  1  0  0  0
  5 27  1  0  0  0
  6  7  1  0  0  0
  6 28  1  0  0  0
  6 47  1  0  0  0
  7  8  1  0  0  0
  7 29  1  0  0  0
  7 30  1  0  0  0
  8 31  1  0  0  0
  8 32  1  0  0  0
  8 33  1  0  0  0
  9 10  1  0  0  0
  9 34  1  0  0  0
  9 35  1  0  0  0
  9 47  1  0  0  0
 10 11  1  0  0  0
 10 12  1  0  0  0
 10 16  1  0  0  0
 11 36  1  0  0  0
 12 13  1  0  0  0
 12 37  1  0  0  0
 12 38  1  0  0  0
 13 14  1  0  0  0
 13 39  1  0  0  0
 13 40  1  0  0  0
 14 15  1  0  0  0
 14 41  1  0  0  0
 14 42  1  0  0  0
 15 16  1  0  0  0
 15 43  1  0  0  0
 15 44  1  0  0  0
 16 45  1  0  0  0
 16 46  1  0  0  0
 47 48  1  0  0  0
 47 49  1  0  0  0
M  CHG  1  47   1
M  END
> <energy>
41.9195

> <chiral flag>
0

> <version>
0

> <i_ionizer_Ion_state_n>
1

> <i_ionizer_Tot_Q>
1

> <s_ionizer_Ion_centers>
47

> <s_ionizer_Ion_types>
N5

> <s_ionizer_Ion_ctrs_in>
9

> <r_ionizer_Ionization_penalty>
0.000148807

> <r_ionizer_Ionization_penalty_charging>
0.000148807

> <r_ionizer_Ionization_penalty_neutral>
0

$$$$
ZINC001258434647
                    3D
 Structure written by MMmdl.
 47 48  0  0  1  0            999 V2000
   -3.6678   -1.8680    2.5647 C   0  0  0  0  0  0
   -4.3396   -1.5774    1.2292 C   0  0  0  0  0  0
   -3.3941   -0.8678    0.2569 C   0  0  0  0  0  0
   -3.3424    0.6469    0.4868 C   0  0  0  0  0  0
   -2.2628    1.3153   -0.3699 C   0  0  0  0  0  0
   -0.8382    1.1797    0.2228 C   0  0  2  0  0  0
   -0.5861    2.3027    1.2552 C   0  0  0  0  0  0
    0.7281    2.1662    2.0130 C   0  0  0  0  0  0
    0.6440    0.0097   -1.3638 C   0  0  1  0  0  0
    1.3874   -0.0340   -2.6662 C   0  0  0  0  0  0
    2.1405   -0.2825   -1.3747 C   0  0  2  0  0  0
    2.5810   -1.6936   -1.0558 C   0  0  0  0  0  0
    4.0671   -1.8368   -1.3444 C   0  0  0  0  0  0
    4.8843   -0.7956   -0.5786 C   0  0  0  0  0  0
    4.0782    0.2416   -0.0277 O   0  0  0  0  0  0
    3.1562    0.7741   -0.9839 C   0  0  0  0  0  0
   -2.8075   -2.5340    2.4314 H   0  0  0  0  0  0
   -3.3194   -0.9496    3.0484 H   0  0  0  0  0  0
   -4.3724   -2.3653    3.2413 H   0  0  0  0  0  0
   -5.2457   -0.9778    1.3845 H   0  0  0  0  0  0
   -4.6555   -2.5304    0.7861 H   0  0  0  0  0  0
   -3.7537   -1.0459   -0.7648 H   0  0  0  0  0  0
   -2.3943   -1.3149    0.3194 H   0  0  0  0  0  0
   -4.3151    1.0635    0.2029 H   0  0  0  0  0  0
   -3.1978    0.8836    1.5454 H   0  0  0  0  0  0
   -2.5106    2.3802   -0.4731 H   0  0  0  0  0  0
   -2.3150    0.8903   -1.3817 H   0  0  0  0  0  0
   -0.7213    0.2163    0.7347 H   0  0  0  0  0  0
   -0.6016    3.2802    0.7550 H   0  0  0  0  0  0
   -1.3978    2.3129    1.9938 H   0  0  0  0  0  0
    0.7667    1.2232    2.5683 H   0  0  0  0  0  0
    0.8305    2.9841    2.7356 H   0  0  0  0  0  0
    1.5928    2.2147    1.3471 H   0  0  0  0  0  0
   -0.0223   -0.8355   -1.1966 H   0  0  0  0  0  0
    1.5766    0.8918   -3.1947 H   0  0  0  0  0  0
    1.2021   -0.8756   -3.3281 H   0  0  0  0  0  0
    2.3846   -1.9099    0.0021 H   0  0  0  0  0  0
    2.0168   -2.4287   -1.6417 H   0  0  0  0  0  0
    4.4203   -2.8448   -1.1064 H   0  0  0  0  0  0
    4.2365   -1.7037   -2.4201 H   0  0  0  0  0  0
    5.4087   -1.2751    0.2550 H   0  0  0  0  0  0
    5.6495   -0.3541   -1.2291 H   0  0  0  0  0  0
    2.6909    1.6494   -0.5265 H   0  0  0  0  0  0
    3.7135    1.1219   -1.8621 H   0  0  0  0  0  0
    0.1594    1.3273   -0.8766 N   0  3  0  0  0  0
   -0.2787    1.8296   -1.6576 H   0  0  0  0  0  0
    0.9601    1.8676   -0.5283 H   0  0  0  0  0  0
  1  2  1  0  0  0
  1 17  1  0  0  0
  1 18  1  0  0  0
  1 19  1  0  0  0
  2  3  1  0  0  0
  2 20  1  0  0  0
  2 21  1  0  0  0
  3  4  1  0  0  0
  3 22  1  0  0  0
  3 23  1  0  0  0
  4  5  1  0  0  0
  4 24  1  0  0  0
  4 25  1  0  0  0
  5  6  1  0  0  0
  5 26  1  0  0  0
  5 27  1  0  0  0
  6  7  1  0  0  0
  6 28  1  0  0  0
  6 45  1  0  0  0
  7  8  1  0  0  0
  7 29  1  0  0  0
  7 30  1  0  0  0
  8 31  1  0  0  0
  8 32  1  0  0  0
  8 33  1  0  0  0
  9 10  1  0  0  0
  9 11  1  0  0  0
  9 34  1  0  0  0
  9 45  1  0  0  0
 10 11  1  0  0  0
 10 35  1  0  0  0
 10 36  1  0  0  0
 11 12  1  0  0  0
 11 16  1  0  0  0
 12 13  1  0  0  0
 12 37  1  0  0  0
 12 38  1  0  0  0
 13 14  1  0  0  0
 13 39  1  0  0  0
 13 40  1  0  0  0
 14 15  1  0  0  0
 14 41  1  0  0  0
 14 42  1  0  0  0
 15 16  1  0  0  0
 16 43  1  0  0  0
 16 44  1  0  0  0
 45 46  1  0  0  0
 45 47  1  0  0  0
M  CHG  1  45   1
M  END
> <energy>
14.6721

> <chiral flag>
0

> <version>
0

> <i_ionizer_Ion_state_n>
1

> <i_ionizer_Tot_Q>
1

> <s_ionizer_Ion_centers>
45

> <s_ionizer_Ion_types>
N5

> <s_ionizer_Ion_ctrs_in>
9

> <r_ionizer_Ionization_penalty>
0.000148807

> <r_ionizer_Ionization_penalty_charging>
0.000148807

> <r_ionizer_Ionization_penalty_neutral>
0

$$$$
ZINC001258434648
                    3D
 Structure written by MMmdl.
 47 48  0  0  1  0            999 V2000
   -4.1916    1.5872   -0.4796 C   0  0  0  0  0  0
   -3.9214    0.2262    0.1467 C   0  0  0  0  0  0
   -3.1954   -0.7006   -0.8341 C   0  0  0  0  0  0
   -2.8516   -2.0668   -0.2264 C   0  0  0  0  0  0
   -1.6927   -2.0055    0.7799 C   0  0  0  0  0  0
   -0.3106   -1.9742    0.0742 C   0  0  2  0  0  0
    0.3333   -3.3747    0.1477 C   0  0  0  0  0  0
    1.6302   -3.4967   -0.6389 C   0  0  0  0  0  0
    1.0326    0.0478   -0.2981 C   0  0  2  0  0  0
    2.4648    0.0101   -0.7397 C   0  0  0  0  0  0
    1.9665    1.1913    0.0602 C   0  0  1  0  0  0
    1.7719    2.5022   -0.6792 C   0  0  0  0  0  0
    2.8819    3.4673   -0.2917 C   0  0  0  0  0  0
    2.8706    3.7054    1.2169 C   0  0  0  0  0  0
    2.2154    2.6657    1.9477 O   0  0  0  0  0  0
    2.5298    1.3598    1.4536 C   0  0  0  0  0  0
   -3.2563    2.0838   -0.7566 H   0  0  0  0  0  0
   -4.7188    2.2291    0.2320 H   0  0  0  0  0  0
   -4.8101    1.4932   -1.3783 H   0  0  0  0  0  0
   -3.3356    0.3761    1.0608 H   0  0  0  0  0  0
   -4.8714   -0.2312    0.4482 H   0  0  0  0  0  0
   -3.8401   -0.8639   -1.7077 H   0  0  0  0  0  0
   -2.2873   -0.2136   -1.2034 H   0  0  0  0  0  0
   -2.5927   -2.7603   -1.0375 H   0  0  0  0  0  0
   -3.7412   -2.4818    0.2607 H   0  0  0  0  0  0
   -1.7570   -2.8818    1.4379 H   0  0  0  0  0  0
   -1.8338   -1.1457    1.4409 H   0  0  0  0  0  0
   -0.4669   -1.7478   -0.9886 H   0  0  0  0  0  0
   -0.3790   -4.1131   -0.2468 H   0  0  0  0  0  0
    0.5206   -3.6490    1.1927 H   0  0  0  0  0  0
    2.4361   -2.9279   -0.1674 H   0  0  0  0  0  0
    1.9432   -4.5451   -0.6771 H   0  0  0  0  0  0
    1.5061   -3.1317   -1.6632 H   0  0  0  0  0  0
    0.2884    0.3109   -1.0496 H   0  0  0  0  0  0
    2.6747    0.1330   -1.7950 H   0  0  0  0  0  0
    3.1376   -0.6861   -0.2468 H   0  0  0  0  0  0
    0.7958    2.9319   -0.4187 H   0  0  0  0  0  0
    1.7736    2.3526   -1.7650 H   0  0  0  0  0  0
    2.7969    4.4208   -0.8262 H   0  0  0  0  0  0
    3.8496    3.0347   -0.5762 H   0  0  0  0  0  0
    2.3286    4.6305    1.4387 H   0  0  0  0  0  0
    3.8897    3.8295    1.6010 H   0  0  0  0  0  0
    3.6194    1.2287    1.4579 H   0  0  0  0  0  0
    2.1074    0.6381    2.1598 H   0  0  0  0  0  0
    0.5868   -0.9609    0.6993 N   0  3  0  0  0  0
    0.0798   -0.4844    1.4543 H   0  0  0  0  0  0
    1.4105   -1.4360    1.0867 H   0  0  0  0  0  0
  1  2  1  0  0  0
  1 17  1  0  0  0
  1 18  1  0  0  0
  1 19  1  0  0  0
  2  3  1  0  0  0
  2 20  1  0  0  0
  2 21  1  0  0  0
  3  4  1  0  0  0
  3 22  1  0  0  0
  3 23  1  0  0  0
  4  5  1  0  0  0
  4 24  1  0  0  0
  4 25  1  0  0  0
  5  6  1  0  0  0
  5 26  1  0  0  0
  5 27  1  0  0  0
  6  7  1  0  0  0
  6 28  1  0  0  0
  6 45  1  0  0  0
  7  8  1  0  0  0
  7 29  1  0  0  0
  7 30  1  0  0  0
  8 31  1  0  0  0
  8 32  1  0  0  0
  8 33  1  0  0  0
  9 10  1  0  0  0
  9 11  1  0  0  0
  9 34  1  0  0  0
  9 45  1  0  0  0
 10 11  1  0  0  0
 10 35  1  0  0  0
 10 36  1  0  0  0
 11 12  1  0  0  0
 11 16  1  0  0  0
 12 13  1  0  0  0
 12 37  1  0  0  0
 12 38  1  0  0  0
 13 14  1  0  0  0
 13 39  1  0  0  0
 13 40  1  0  0  0
 14 15  1  0  0  0
 14 41  1  0  0  0
 14 42  1  0  0  0
 15 16  1  0  0  0
 16 43  1  0  0  0
 16 44  1  0  0  0
 45 46  1  0  0  0
 45 47  1  0  0  0
M  CHG  1  45   1
M  END
> <energy>
17.0987

> <chiral flag>
0

> <version>
0

> <i_ionizer_Ion_state_n>
1

> <i_ionizer_Tot_Q>
1

> <s_ionizer_Ion_centers>
45

> <s_ionizer_Ion_types>
N5

> <s_ionizer_Ion_ctrs_in>
9

> <r_ionizer_Ionization_penalty>
0.000148807

> <r_ionizer_Ionization_penalty_charging>
0.000148807

> <r_ionizer_Ionization_penalty_neutral>
0

$$$$
ZINC001258434649
                    3D
 Structure written by MMmdl.
 47 48  0  0  1  0            999 V2000
   -2.8035    3.0853    0.6509 C   0  0  0  0  0  0
   -3.1687    1.8482   -0.1571 C   0  0  0  0  0  0
   -2.5885    0.5817    0.4739 C   0  0  0  0  0  0
   -2.9153   -0.6604   -0.3650 C   0  0  0  0  0  0
   -2.2484   -1.9378    0.1622 C   0  0  0  0  0  0
   -0.7422   -2.1915   -0.1644 C   0  0  2  0  0  0
   -0.0680   -2.8704    1.0562 C   0  0  0  0  0  0
    0.2364   -1.9203    2.2126 C   0  0  0  0  0  0
    1.3517   -1.1625   -1.0670 C   0  0  1  0  0  0
    1.7444   -0.7166   -2.4513 C   0  0  0  0  0  0
    2.2096    0.0790   -1.2560 C   0  0  1  0  0  0
    1.6093    1.4423   -0.9976 C   0  0  0  0  0  0
    1.8555    1.8261    0.4570 C   0  0  0  0  0  0
    3.3353    1.6852    0.7941 C   0  0  0  0  0  0
    3.8091    0.3654    0.5152 O   0  0  0  0  0  0
    3.6666    0.0180   -0.8643 C   0  0  0  0  0  0
   -1.7171    3.1905    0.7425 H   0  0  0  0  0  0
   -3.2251    3.0325    1.6601 H   0  0  0  0  0  0
   -3.1912    3.9861    0.1659 H   0  0  0  0  0  0
   -4.2597    1.7685   -0.2272 H   0  0  0  0  0  0
   -2.7851    1.9638   -1.1773 H   0  0  0  0  0  0
   -1.5082    0.7058    0.5944 H   0  0  0  0  0  0
   -2.9938    0.4554    1.4854 H   0  0  0  0  0  0
   -2.6672   -0.5033   -1.4181 H   0  0  0  0  0  0
   -4.0016   -0.8055   -0.3336 H   0  0  0  0  0  0
   -2.8044   -2.7866   -0.2609 H   0  0  0  0  0  0
   -2.4280   -1.9909    1.2422 H   0  0  0  0  0  0
   -0.7225   -2.9105   -0.9958 H   0  0  0  0  0  0
    0.8620   -3.3599    0.7467 H   0  0  0  0  0  0
   -0.7192   -3.6759    1.4211 H   0  0  0  0  0  0
   -0.6491   -1.3591    2.5250 H   0  0  0  0  0  0
    1.0176   -1.2028    1.9419 H   0  0  0  0  0  0
    0.5956   -2.4908    3.0747 H   0  0  0  0  0  0
    1.8748   -2.0286   -0.6686 H   0  0  0  0  0  0
    0.9877   -0.2873   -3.0982 H   0  0  0  0  0  0
    2.4667   -1.3248   -2.9869 H   0  0  0  0  0  0
    0.5371    1.4805   -1.2165 H   0  0  0  0  0  0
    2.0847    2.1729   -1.6613 H   0  0  0  0  0  0
    1.2801    1.1563    1.1059 H   0  0  0  0  0  0
    1.5152    2.8477    0.6484 H   0  0  0  0  0  0
    3.4955    1.8729    1.8609 H   0  0  0  0  0  0
    3.9390    2.4099    0.2362 H   0  0  0  0  0  0
    4.2637    0.7033   -1.4783 H   0  0  0  0  0  0
    4.0809   -0.9867   -1.0013 H   0  0  0  0  0  0
   -0.0570   -0.9420   -0.6042 N   0  3  0  0  0  0
   -0.5931   -0.5329   -1.3785 H   0  0  0  0  0  0
   -0.0406   -0.2855    0.1851 H   0  0  0  0  0  0
  1  2  1  0  0  0
  1 17  1  0  0  0
  1 18  1  0  0  0
  1 19  1  0  0  0
  2  3  1  0  0  0
  2 20  1  0  0  0
  2 21  1  0  0  0
  3  4  1  0  0  0
  3 22  1  0  0  0
  3 23  1  0  0  0
  4  5  1  0  0  0
  4 24  1  0  0  0
  4 25  1  0  0  0
  5  6  1  0  0  0
  5 26  1  0  0  0
  5 27  1  0  0  0
  6  7  1  0  0  0
  6 28  1  0  0  0
  6 45  1  0  0  0
  7  8  1  0  0  0
  7 29  1  0  0  0
  7 30  1  0  0  0
  8 31  1  0  0  0
  8 32  1  0  0  0
  8 33  1  0  0  0
  9 10  1  0  0  0
  9 11  1  0  0  0
  9 34  1  0  0  0
  9 45  1  0  0  0
 10 11  1  0  0  0
 10 35  1  0  0  0
 10 36  1  0  0  0
 11 12  1  0  0  0
 11 16  1  0  0  0
 12 13  1  0  0  0
 12 37  1  0  0  0
 12 38  1  0  0  0
 13 14  1  0  0  0
 13 39  1  0  0  0
 13 40  1  0  0  0
 14 15  1  0  0  0
 14 41  1  0  0  0
 14 42  1  0  0  0
 15 16  1  0  0  0
 16 43  1  0  0  0
 16 44  1  0  0  0
 45 46  1  0  0  0
 45 47  1  0  0  0
M  CHG  1  45   1
M  END
> <energy>
12.3271

> <chiral flag>
0

> <version>
0

> <i_ionizer_Ion_state_n>
1

> <i_ionizer_Tot_Q>
1

> <s_ionizer_Ion_centers>
45

> <s_ionizer_Ion_types>
N5

> <s_ionizer_Ion_ctrs_in>
9

> <r_ionizer_Ionization_penalty>
0.000148807

> <r_ionizer_Ionization_penalty_charging>
0.000148807

> <r_ionizer_Ionization_penalty_neutral>
0

$$$$
ZINC001258434650
                    3D
 Structure written by MMmdl.
 47 48  0  0  1  0            999 V2000
   -5.0540    0.6418    0.7285 C   0  0  0  0  0  0
   -3.5665    0.4782    0.9938 C   0  0  0  0  0  0
   -2.9898   -0.7273    0.2522 C   0  0  0  0  0  0
   -1.4966   -0.9076    0.5704 C   0  0  0  0  0  0
   -0.8796   -2.0409   -0.2622 C   0  0  0  0  0  0
    0.6659   -2.1613   -0.2703 C   0  0  2  0  0  0
    1.2274   -3.0349    0.8802 C   0  0  0  0  0  0
    1.1852   -2.4243    2.2777 C   0  0  0  0  0  0
    1.1333   -0.0398   -1.4771 C   0  0  2  0  0  0
    2.1447    0.1942   -2.5617 C   0  0  0  0  0  0
    1.8688    1.2917   -1.5505 C   0  0  2  0  0  0
    2.9810    1.6296   -0.5856 C   0  0  0  0  0  0
    2.4093    2.2691    0.6752 C   0  0  0  0  0  0
    1.1189    3.0213    0.3777 C   0  0  0  0  0  0
    1.1454    3.5428   -0.9523 O   0  0  0  0  0  0
    1.0333    2.4967   -1.9316 C   0  0  0  0  0  0
   -5.4071    1.6004    1.1244 H   0  0  0  0  0  0
   -5.6270   -0.1573    1.2104 H   0  0  0  0  0  0
   -5.2770    0.6245   -0.3434 H   0  0  0  0  0  0
   -3.0434    1.3853    0.6692 H   0  0  0  0  0  0
   -3.4033    0.3752    2.0729 H   0  0  0  0  0  0
   -3.1183   -0.5758   -0.8284 H   0  0  0  0  0  0
   -3.5388   -1.6393    0.5219 H   0  0  0  0  0  0
   -0.9918    0.0419    0.3710 H   0  0  0  0  0  0
   -1.3820   -1.1155    1.6376 H   0  0  0  0  0  0
   -1.2040   -1.9127   -1.3040 H   0  0  0  0  0  0
   -1.3195   -2.9921    0.0651 H   0  0  0  0  0  0
    0.9096   -2.7081   -1.1915 H   0  0  0  0  0  0
    2.2754   -3.2772    0.6501 H   0  0  0  0  0  0
    0.6974   -3.9966    0.8964 H   0  0  0  0  0  0
    0.1584   -2.3407    2.6420 H   0  0  0  0  0  0
    1.6566   -1.4377    2.3081 H   0  0  0  0  0  0
    1.7273   -3.0687    2.9772 H   0  0  0  0  0  0
    0.0951   -0.0195   -1.8059 H   0  0  0  0  0  0
    3.0978   -0.3241   -2.5239 H   0  0  0  0  0  0
    1.7831    0.3454   -3.5713 H   0  0  0  0  0  0
    3.5949    0.7638   -0.3166 H   0  0  0  0  0  0
    3.6663    2.3328   -1.0786 H   0  0  0  0  0  0
    2.2094    1.5154    1.4421 H   0  0  0  0  0  0
    3.1603    2.9437    1.1004 H   0  0  0  0  0  0
    0.9951    3.8588    1.0715 H   0  0  0  0  0  0
    0.2454    2.3671    0.4975 H   0  0  0  0  0  0
   -0.0247    2.2427   -2.0294 H   0  0  0  0  0  0
    1.3632    2.9056   -2.8911 H   0  0  0  0  0  0
    1.4192   -0.8756   -0.2809 N   0  3  0  0  0  0
    1.1655   -0.3417    0.5586 H   0  0  0  0  0  0
    2.4240   -1.0858   -0.2622 H   0  0  0  0  0  0
  1  2  1  0  0  0
  1 17  1  0  0  0
  1 18  1  0  0  0
  1 19  1  0  0  0
  2  3  1  0  0  0
  2 20  1  0  0  0
  2 21  1  0  0  0
  3  4  1  0  0  0
  3 22  1  0  0  0
  3 23  1  0  0  0
  4  5  1  0  0  0
  4 24  1  0  0  0
  4 25  1  0  0  0
  5  6  1  0  0  0
  5 26  1  0  0  0
  5 27  1  0  0  0
  6  7  1  0  0  0
  6 28  1  0  0  0
  6 45  1  0  0  0
  7  8  1  0  0  0
  7 29  1  0  0  0
  7 30  1  0  0  0
  8 31  1  0  0  0
  8 32  1  0  0  0
  8 33  1  0  0  0
  9 10  1  0  0  0
  9 11  1  0  0  0
  9 34  1  0  0  0
  9 45  1  0  0  0
 10 11  1  0  0  0
 10 35  1  0  0  0
 10 36  1  0  0  0
 11 12  1  0  0  0
 11 16  1  0  0  0
 12 13  1  0  0  0
 12 37  1  0  0  0
 12 38  1  0  0  0
 13 14  1  0  0  0
 13 39  1  0  0  0
 13 40  1  0  0  0
 14 15  1  0  0  0
 14 41  1  0  0  0
 14 42  1  0  0  0
 15 16  1  0  0  0
 16 43  1  0  0  0
 16 44  1  0  0  0
 45 46  1  0  0  0
 45 47  1  0  0  0
M  CHG  1  45   1
M  END
> <energy>
13.3988

> <chiral flag>
0

> <version>
0

> <i_ionizer_Ion_state_n>
1

> <i_ionizer_Tot_Q>
1

> <s_ionizer_Ion_centers>
45

> <s_ionizer_Ion_types>
N5

> <s_ionizer_Ion_ctrs_in>
9

> <r_ionizer_Ionization_penalty>
0.000148807

> <r_ionizer_Ionization_penalty_charging>
0.000148807

> <r_ionizer_Ionization_penalty_neutral>
0

$$$$
ZINC001258434731
                    3D
 Structure written by MMmdl.
 47 47  0  0  1  0            999 V2000
   -3.5929    2.8768    0.4814 C   0  0  0  0  0  0
   -3.5275    1.6471   -0.4105 C   0  0  0  0  0  0
   -2.8012    0.4914    0.2805 C   0  0  0  0  0  0
   -2.7128   -0.7304   -0.6333 C   0  0  0  0  0  0
   -2.1573   -1.9949    0.0397 C   0  0  0  0  0  0
   -0.6370   -2.0254    0.3785 C   0  0  2  0  0  0
   -0.3523   -1.2189    1.6737 C   0  0  0  0  0  0
    0.6527   -1.9043    2.5972 C   0  0  0  0  0  0
    0.3192   -2.9017   -1.6857 C   0  0  0  0  0  0
    1.4039   -0.9796   -0.7130 C   0  0  0  0  0  0
    1.2108    0.5148   -1.0033 C   0  0  0  0  0  0
    2.4920    1.2765   -0.7705 C   0  0  0  0  0  0
    2.7090    1.9432    0.4333 C   0  0  0  0  0  0
    3.9119    2.6189    0.6207 C   0  0  0  0  0  0
    4.8638    2.6095   -0.3911 C   0  0  0  0  0  0
    4.5721    1.9178   -1.5537 C   0  0  0  0  0  0
    3.4151    1.2517   -1.7630 N   0  0  0  0  0  0
   -4.1194    3.6883   -0.0309 H   0  0  0  0  0  0
   -2.5887    3.2306    0.7364 H   0  0  0  0  0  0
   -4.1268    2.6590    1.4120 H   0  0  0  0  0  0
   -4.5465    1.3415   -0.6758 H   0  0  0  0  0  0
   -3.0129    1.9062   -1.3431 H   0  0  0  0  0  0
   -1.7995    0.8256    0.5615 H   0  0  0  0  0  0
   -3.3305    0.2268    1.2034 H   0  0  0  0  0  0
   -2.1316   -0.4845   -1.5294 H   0  0  0  0  0  0
   -3.7249   -0.9684   -0.9867 H   0  0  0  0  0  0
   -2.3758   -2.8347   -0.6333 H   0  0  0  0  0  0
   -2.7395   -2.2066    0.9463 H   0  0  0  0  0  0
   -0.4240   -3.0711    0.6463 H   0  0  0  0  0  0
   -1.2764   -1.0974    2.2521 H   0  0  0  0  0  0
   -0.0047   -0.2065    1.4571 H   0  0  0  0  0  0
    0.8491   -1.2733    3.4701 H   0  0  0  0  0  0
    1.6065   -2.1078    2.1066 H   0  0  0  0  0  0
    0.2534   -2.8576    2.9596 H   0  0  0  0  0  0
    0.7308   -2.6253   -2.6633 H   0  0  0  0  0  0
    0.9957   -3.6249   -1.2165 H   0  0  0  0  0  0
   -0.6310   -3.4036   -1.8921 H   0  0  0  0  0  0
    2.1412   -1.3509   -1.4396 H   0  0  0  0  0  0
    1.8821   -1.1418    0.2549 H   0  0  0  0  0  0
    0.9044    0.6535   -2.0483 H   0  0  0  0  0  0
    0.4112    0.9478   -0.3937 H   0  0  0  0  0  0
    1.9568    1.9397    1.2156 H   0  0  0  0  0  0
    4.1036    3.1492    1.5489 H   0  0  0  0  0  0
    5.8092    3.1271   -0.2771 H   0  0  0  0  0  0
    5.2825    1.8781   -2.3744 H   0  0  0  0  0  0
    0.0901   -1.6802   -0.9142 N   0  3  2  0  0  0
   -0.5180   -1.0563   -1.4576 H   0  0  0  0  0  0
  1  2  1  0  0  0
  1 18  1  0  0  0
  1 19  1  0  0  0
  1 20  1  0  0  0
  2  3  1  0  0  0
  2 21  1  0  0  0
  2 22  1  0  0  0
  3  4  1  0  0  0
  3 23  1  0  0  0
  3 24  1  0  0  0
  4  5  1  0  0  0
  4 25  1  0  0  0
  4 26  1  0  0  0
  5  6  1  0  0  0
  5 27  1  0  0  0
  5 28  1  0  0  0
  6  7  1  0  0  0
  6 29  1  0  0  0
  6 46  1  0  0  0
  7  8  1  0  0  0
  7 30  1  0  0  0
  7 31  1  0  0  0
  8 32  1  0  0  0
  8 33  1  0  0  0
  8 34  1  0  0  0
  9 35  1  0  0  0
  9 36  1  0  0  0
  9 37  1  0  0  0
  9 46  1  0  0  0
 10 11  1  0  0  0
 10 38  1  0  0  0
 10 39  1  0  0  0
 10 46  1  0  0  0
 11 12  1  0  0  0
 11 40  1  0  0  0
 11 41  1  0  0  0
 12 13  2  0  0  0
 12 17  1  0  0  0
 13 14  1  0  0  0
 13 42  1  0  0  0
 14 15  2  0  0  0
 14 43  1  0  0  0
 15 16  1  0  0  0
 15 44  1  0  0  0
 16 17  2  0  0  0
 16 45  1  0  0  0
 46 47  1  0  0  0
M  CHG  1  46   1
M  END
> <energy>
45.5111

> <chiral flag>
0

> <version>
0

> <i_ionizer_Ion_state_n>
1

> <i_ionizer_Tot_Q>
1

> <s_ionizer_Ion_centers>
46

> <s_ionizer_Ion_types>
N5

> <s_ionizer_Ion_ctrs_in>
9

> <r_ionizer_Ionization_penalty>
0.00889878

> <r_ionizer_Ionization_penalty_charging>
0.00148639

> <r_ionizer_Ionization_penalty_neutral>
0.00741239

$$$$
ZINC001258434733
                    3D
 Structure written by MMmdl.
 47 47  0  0  1  0            999 V2000
   -2.7756    3.6324   -1.8251 C   0  0  0  0  0  0
   -2.6355    3.0459   -0.4272 C   0  0  0  0  0  0
   -2.6100    1.5181   -0.4654 C   0  0  0  0  0  0
   -2.5385    0.9223    0.9434 C   0  0  0  0  0  0
   -2.5376   -0.6182    0.9639 C   0  0  0  0  0  0
   -1.1167   -1.2341    1.0426 C   0  0  1  0  0  0
   -1.1429   -2.7590    1.3024 C   0  0  0  0  0  0
   -2.0856   -3.6082    0.4599 C   0  0  0  0  0  0
   -0.5543   -1.3230   -1.3781 C   0  0  0  0  0  0
    1.1819   -0.8256    0.2264 C   0  0  0  0  0  0
    1.8164    0.5496   -0.0216 C   0  0  0  0  0  0
    3.3242    0.4767   -0.0418 C   0  0  0  0  0  0
    4.0505    0.3180    1.1351 C   0  0  0  0  0  0
    5.4419    0.2405    1.0613 C   0  0  0  0  0  0
    6.0638    0.3248   -0.1784 C   0  0  0  0  0  0
    5.2698    0.4775   -1.2979 C   0  0  0  0  0  0
    3.9201    0.5496   -1.2571 N   0  0  0  0  0  0
   -1.9304    3.3406   -2.4577 H   0  0  0  0  0  0
   -2.8090    4.7259   -1.7748 H   0  0  0  0  0  0
   -3.6983    3.2890   -2.3034 H   0  0  0  0  0  0
   -1.7116    3.4215    0.0292 H   0  0  0  0  0  0
   -3.4707    3.3959    0.1916 H   0  0  0  0  0  0
   -3.5080    1.1485   -0.9717 H   0  0  0  0  0  0
   -1.7538    1.1992   -1.0650 H   0  0  0  0  0  0
   -1.6628    1.3133    1.4747 H   0  0  0  0  0  0
   -3.4142    1.2674    1.5047 H   0  0  0  0  0  0
   -3.1043   -1.0137    0.1136 H   0  0  0  0  0  0
   -3.0806   -0.9336    1.8665 H   0  0  0  0  0  0
   -0.6901   -0.8014    1.9595 H   0  0  0  0  0  0
   -0.1270   -3.1644    1.2158 H   0  0  0  0  0  0
   -1.4304   -2.9139    2.3519 H   0  0  0  0  0  0
   -1.9120   -3.5027   -0.6108 H   0  0  0  0  0  0
   -1.9412   -4.6669    0.7054 H   0  0  0  0  0  0
   -3.1325   -3.3639    0.6677 H   0  0  0  0  0  0
   -1.6196   -1.2699   -1.6181 H   0  0  0  0  0  0
   -0.2254   -2.3620   -1.4765 H   0  0  0  0  0  0
   -0.0436   -0.7381   -2.1508 H   0  0  0  0  0  0
    1.6801   -1.5959   -0.3742 H   0  0  0  0  0  0
    1.3738   -1.1094    1.2693 H   0  0  0  0  0  0
    1.4950    1.2640    0.7468 H   0  0  0  0  0  0
    1.4761    0.9586   -0.9811 H   0  0  0  0  0  0
    3.5515    0.2575    2.0980 H   0  0  0  0  0  0
    6.0325    0.1191    1.9645 H   0  0  0  0  0  0
    7.1416    0.2703   -0.2682 H   0  0  0  0  0  0
    5.7044    0.5513   -2.2892 H   0  0  0  0  0  0
   -0.2634   -0.6821   -0.0761 N   0  3  2  0  0  0
   -0.4748    0.3190   -0.1623 H   0  0  0  0  0  0
  1  2  1  0  0  0
  1 18  1  0  0  0
  1 19  1  0  0  0
  1 20  1  0  0  0
  2  3  1  0  0  0
  2 21  1  0  0  0
  2 22  1  0  0  0
  3  4  1  0  0  0
  3 23  1  0  0  0
  3 24  1  0  0  0
  4  5  1  0  0  0
  4 25  1  0  0  0
  4 26  1  0  0  0
  5  6  1  0  0  0
  5 27  1  0  0  0
  5 28  1  0  0  0
  6  7  1  0  0  0
  6 29  1  0  0  0
  6 46  1  0  0  0
  7  8  1  0  0  0
  7 30  1  0  0  0
  7 31  1  0  0  0
  8 32  1  0  0  0
  8 33  1  0  0  0
  8 34  1  0  0  0
  9 35  1  0  0  0
  9 36  1  0  0  0
  9 37  1  0  0  0
  9 46  1  0  0  0
 10 11  1  0  0  0
 10 38  1  0  0  0
 10 39  1  0  0  0
 10 46  1  0  0  0
 11 12  1  0  0  0
 11 40  1  0  0  0
 11 41  1  0  0  0
 12 13  2  0  0  0
 12 17  1  0  0  0
 13 14  1  0  0  0
 13 42  1  0  0  0
 14 15  2  0  0  0
 14 43  1  0  0  0
 15 16  1  0  0  0
 15 44  1  0  0  0
 16 17  2  0  0  0
 16 45  1  0  0  0
 46 47  1  0  0  0
M  CHG  1  46   1
M  END
> <energy>
42.7879

> <chiral flag>
0

> <version>
0

> <i_ionizer_Ion_state_n>
1

> <i_ionizer_Tot_Q>
1

> <s_ionizer_Ion_centers>
46

> <s_ionizer_Ion_types>
N5

> <s_ionizer_Ion_ctrs_in>
9

> <r_ionizer_Ionization_penalty>
0.00889878

> <r_ionizer_Ionization_penalty_charging>
0.00148639

> <r_ionizer_Ionization_penalty_neutral>
0.00741239

$$$$
ZINC001258434793
                    3D
 Structure written by MMmdl.
 46 46  0  0  1  0            999 V2000
    1.8779   -1.1019   -3.0296 C   0  0  0  0  0  0
    0.6022   -0.2811   -3.1355 C   0  0  0  0  0  0
   -0.6691   -1.1275   -3.1411 C   0  0  0  0  0  0
   -0.9437   -1.9627   -1.8851 C   0  0  0  0  0  0
   -1.3382   -1.1547   -0.6395 C   0  0  0  0  0  0
   -0.1957   -0.7626    0.3257 C   0  0  2  0  0  0
    0.5946   -1.9778    0.8774 C   0  0  0  0  0  0
   -0.2450   -3.0829    1.5082 C   0  0  0  0  0  0
   -0.7857    1.4408    1.4889 C   0  0  2  0  0  0
   -2.1897    1.8064    2.0132 C   0  0  0  0  0  0
    0.2662    1.9129    2.5250 C   0  0  0  0  0  0
    1.6797    1.9130    1.9517 C   0  0  0  0  0  0
    1.7166    2.7322    0.6714 C   0  0  0  0  0  0
    0.8082    2.2026   -0.2887 O   0  0  0  0  0  0
   -0.5525    2.2179    0.1591 C   0  0  0  0  0  0
    1.9363   -1.8411   -3.8356 H   0  0  0  0  0  0
    1.9409   -1.6288   -2.0740 H   0  0  0  0  0  0
    2.7535   -0.4486   -3.1056 H   0  0  0  0  0  0
    0.6396    0.2886   -4.0725 H   0  0  0  0  0  0
    0.5660    0.4593   -2.3332 H   0  0  0  0  0  0
   -1.5257   -0.4676   -3.3272 H   0  0  0  0  0  0
   -0.6241   -1.8105   -4.0001 H   0  0  0  0  0  0
   -1.8021   -2.6029   -2.1306 H   0  0  0  0  0  0
   -0.1199   -2.6518   -1.6862 H   0  0  0  0  0  0
   -2.0720   -1.7544   -0.0818 H   0  0  0  0  0  0
   -1.8897   -0.2627   -0.9582 H   0  0  0  0  0  0
    0.5428   -0.1526   -0.1936 H   0  0  0  0  0  0
    1.3138   -1.6211    1.6267 H   0  0  0  0  0  0
    1.2065   -2.4165    0.0813 H   0  0  0  0  0  0
   -0.8431   -3.6030    0.7549 H   0  0  0  0  0  0
    0.4085   -3.8280    1.9753 H   0  0  0  0  0  0
   -0.9178   -2.6987    2.2799 H   0  0  0  0  0  0
   -2.9695    1.4867    1.3125 H   0  0  0  0  0  0
   -2.3936    1.3366    2.9823 H   0  0  0  0  0  0
   -2.2956    2.8889    2.1499 H   0  0  0  0  0  0
    0.0291    2.9356    2.8498 H   0  0  0  0  0  0
    0.2367    1.2997    3.4357 H   0  0  0  0  0  0
    2.3815    2.3261    2.6846 H   0  0  0  0  0  0
    1.9893    0.8832    1.7408 H   0  0  0  0  0  0
    1.4736    3.7844    0.8659 H   0  0  0  0  0  0
    2.7201    2.6991    0.2357 H   0  0  0  0  0  0
   -0.8541    3.2682    0.2712 H   0  0  0  0  0  0
   -1.1718    1.8120   -0.6451 H   0  0  0  0  0  0
   -0.8317   -0.0799    1.5116 N   0  3  0  0  0  0
   -1.8167   -0.3670    1.5519 H   0  0  0  0  0  0
   -0.3471   -0.3994    2.3586 H   0  0  0  0  0  0
  1  2  1  0  0  0
  1 16  1  0  0  0
  1 17  1  0  0  0
  1 18  1  0  0  0
  2  3  1  0  0  0
  2 19  1  0  0  0
  2 20  1  0  0  0
  3  4  1  0  0  0
  3 21  1  0  0  0
  3 22  1  0  0  0
  4  5  1  0  0  0
  4 23  1  0  0  0
  4 24  1  0  0  0
  5  6  1  0  0  0
  5 25  1  0  0  0
  5 26  1  0  0  0
  6  7  1  0  0  0
  6 27  1  0  0  0
  6 44  1  0  0  0
  7  8  1  0  0  0
  7 28  1  0  0  0
  7 29  1  0  0  0
  8 30  1  0  0  0
  8 31  1  0  0  0
  8 32  1  0  0  0
  9 10  1  0  0  0
  9 11  1  0  0  0
  9 15  1  0  0  0
  9 44  1  0  0  0
 10 33  1  0  0  0
 10 34  1  0  0  0
 10 35  1  0  0  0
 11 12  1  0  0  0
 11 36  1  0  0  0
 11 37  1  0  0  0
 12 13  1  0  0  0
 12 38  1  0  0  0
 12 39  1  0  0  0
 13 14  1  0  0  0
 13 40  1  0  0  0
 13 41  1  0  0  0
 14 15  1  0  0  0
 15 42  1  0  0  0
 15 43  1  0  0  0
 44 45  1  0  0  0
 44 46  1  0  0  0
M  CHG  1  44   1
M  END
> <energy>
41.8373

> <chiral flag>
0

> <version>
0

> <i_ionizer_Ion_state_n>
1

> <i_ionizer_Tot_Q>
1

> <s_ionizer_Ion_centers>
44

> <s_ionizer_Ion_types>
N5

> <s_ionizer_Ion_ctrs_in>
9

> <r_ionizer_Ionization_penalty>
0.000148807

> <r_ionizer_Ionization_penalty_charging>
0.000148807

> <r_ionizer_Ionization_penalty_neutral>
0

$$$$
ZINC001258434803
                    3D
 Structure written by MMmdl.
 46 46  0  0  1  0            999 V2000
   -3.5059   -2.8208   -1.6198 C   0  0  0  0  0  0
   -2.4499   -1.7802   -1.2741 C   0  0  0  0  0  0
   -3.0428   -0.3671   -1.2670 C   0  0  0  0  0  0
   -1.9753    0.7218   -1.1391 C   0  0  0  0  0  0
   -1.4515    0.9121    0.2955 C   0  0  0  0  0  0
   -0.2310    1.8667    0.3762 C   0  0  1  0  0  0
    0.1567    2.2622    1.8171 C   0  0  0  0  0  0
   -0.9329    3.0108    2.5774 C   0  0  0  0  0  0
    1.8616    0.3743   -0.0477 C   0  0  2  0  0  0
    2.9500    0.9679    0.8810 C   0  0  0  0  0  0
    1.2081   -0.8769    0.5929 C   0  0  0  0  0  0
    2.1641   -2.0650    0.7240 C   0  0  0  0  0  0
    2.8310   -2.3471   -0.6137 C   0  0  0  0  0  0
    3.4968   -1.1841   -1.1016 O   0  0  0  0  0  0
    2.5811   -0.1095   -1.3526 C   0  0  0  0  0  0
   -3.9080   -2.6428   -2.6238 H   0  0  0  0  0  0
   -4.3366   -2.7920   -0.9056 H   0  0  0  0  0  0
   -3.0732   -3.8263   -1.6061 H   0  0  0  0  0  0
   -2.0158   -2.0168   -0.2961 H   0  0  0  0  0  0
   -1.6431   -1.8395   -2.0145 H   0  0  0  0  0  0
   -3.5772   -0.2078   -2.2115 H   0  0  0  0  0  0
   -3.7896   -0.2726   -0.4699 H   0  0  0  0  0  0
   -1.1584    0.5113   -1.8394 H   0  0  0  0  0  0
   -2.4147    1.6716   -1.4632 H   0  0  0  0  0  0
   -2.2768    1.3345    0.8808 H   0  0  0  0  0  0
   -1.2278   -0.0455    0.7673 H   0  0  0  0  0  0
   -0.5729    2.7963   -0.0997 H   0  0  0  0  0  0
    0.4307    1.3835    2.4105 H   0  0  0  0  0  0
    1.0299    2.9255    1.7774 H   0  0  0  0  0  0
   -1.3417    3.8355    1.9877 H   0  0  0  0  0  0
   -0.5193    3.4361    3.4998 H   0  0  0  0  0  0
   -1.7502    2.3430    2.8650 H   0  0  0  0  0  0
    3.8039    0.2886    0.9929 H   0  0  0  0  0  0
    3.3528    1.9068    0.4771 H   0  0  0  0  0  0
    2.5805    1.1660    1.8900 H   0  0  0  0  0  0
    0.3822   -1.2155   -0.0451 H   0  0  0  0  0  0
    0.7937   -0.6532    1.5832 H   0  0  0  0  0  0
    1.6128   -2.9508    1.0706 H   0  0  0  0  0  0
    2.9147   -1.8407    1.4905 H   0  0  0  0  0  0
    3.5759   -3.1425   -0.4976 H   0  0  0  0  0  0
    2.1011   -2.6819   -1.3587 H   0  0  0  0  0  0
    3.1662    0.7076   -1.7951 H   0  0  0  0  0  0
    1.8669   -0.4374   -2.1180 H   0  0  0  0  0  0
    0.9168    1.4768   -0.5478 N   0  3  0  0  0  0
    0.5078    1.1578   -1.4339 H   0  0  0  0  0  0
    1.4811    2.3182   -0.7145 H   0  0  0  0  0  0
  1  2  1  0  0  0
  1 16  1  0  0  0
  1 17  1  0  0  0
  1 18  1  0  0  0
  2  3  1  0  0  0
  2 19  1  0  0  0
  2 20  1  0  0  0
  3  4  1  0  0  0
  3 21  1  0  0  0
  3 22  1  0  0  0
  4  5  1  0  0  0
  4 23  1  0  0  0
  4 24  1  0  0  0
  5  6  1  0  0  0
  5 25  1  0  0  0
  5 26  1  0  0  0
  6  7  1  0  0  0
  6 27  1  0  0  0
  6 44  1  0  0  0
  7  8  1  0  0  0
  7 28  1  0  0  0
  7 29  1  0  0  0
  8 30  1  0  0  0
  8 31  1  0  0  0
  8 32  1  0  0  0
  9 10  1  0  0  0
  9 11  1  0  0  0
  9 15  1  0  0  0
  9 44  1  0  0  0
 10 33  1  0  0  0
 10 34  1  0  0  0
 10 35  1  0  0  0
 11 12  1  0  0  0
 11 36  1  0  0  0
 11 37  1  0  0  0
 12 13  1  0  0  0
 12 38  1  0  0  0
 12 39  1  0  0  0
 13 14  1  0  0  0
 13 40  1  0  0  0
 13 41  1  0  0  0
 14 15  1  0  0  0
 15 42  1  0  0  0
 15 43  1  0  0  0
 44 45  1  0  0  0
 44 46  1  0  0  0
M  CHG  1  44   1
M  END
> <energy>
41.1573

> <chiral flag>
0

> <version>
0

> <i_ionizer_Ion_state_n>
1

> <i_ionizer_Tot_Q>
1

> <s_ionizer_Ion_centers>
44

> <s_ionizer_Ion_types>
N5

> <s_ionizer_Ion_ctrs_in>
9

> <r_ionizer_Ionization_penalty>
0.000148807

> <r_ionizer_Ionization_penalty_charging>
0.000148807

> <r_ionizer_Ionization_penalty_neutral>
0

$$$$
ZINC001258434805
                    3D
 Structure written by MMmdl.
 46 46  0  0  1  0            999 V2000
   -3.4210    2.4650    0.1178 C   0  0  0  0  0  0
   -3.5502    1.2688    1.0512 C   0  0  0  0  0  0
   -3.6687   -0.0663    0.3097 C   0  0  0  0  0  0
   -2.4088   -0.5036   -0.4490 C   0  0  0  0  0  0
   -1.3013   -1.0148    0.4824 C   0  0  0  0  0  0
    0.0354   -1.3197   -0.2334 C   0  0  2  0  0  0
    0.1316   -2.7403   -0.8335 C   0  0  0  0  0  0
   -0.8002   -3.0111   -2.0023 C   0  0  0  0  0  0
    2.0731   -0.1082    0.6243 C   0  0  1  0  0  0
    3.0059   -0.2235    1.8553 C   0  0  0  0  0  0
    1.3951    1.2840    0.6316 C   0  0  0  0  0  0
    2.3822    2.4102    0.3212 C   0  0  0  0  0  0
    3.2047    2.0924   -0.9209 C   0  0  0  0  0  0
    3.8648    0.8342   -0.7924 O   0  0  0  0  0  0
    2.9343   -0.2473   -0.6596 C   0  0  0  0  0  0
   -3.4643    3.3955    0.6936 H   0  0  0  0  0  0
   -4.2366    2.4849   -0.6130 H   0  0  0  0  0  0
   -2.4709    2.4553   -0.4246 H   0  0  0  0  0  0
   -2.7064    1.2564    1.7486 H   0  0  0  0  0  0
   -4.4543    1.4049    1.6574 H   0  0  0  0  0  0
   -4.4998    0.0025   -0.4040 H   0  0  0  0  0  0
   -3.9474   -0.8467    1.0285 H   0  0  0  0  0  0
   -2.7043   -1.2955   -1.1404 H   0  0  0  0  0  0
   -2.0311    0.3178   -1.0655 H   0  0  0  0  0  0
   -1.6508   -1.9001    1.0281 H   0  0  0  0  0  0
   -1.1280   -0.2409    1.2406 H   0  0  0  0  0  0
    0.1810   -0.6015   -1.0465 H   0  0  0  0  0  0
   -0.0411   -3.4993   -0.0592 H   0  0  0  0  0  0
    1.1573   -2.8963   -1.1970 H   0  0  0  0  0  0
   -1.8266   -3.1650   -1.6625 H   0  0  0  0  0  0
   -0.4970   -3.9292   -2.5171 H   0  0  0  0  0  0
   -0.7797   -2.1924   -2.7285 H   0  0  0  0  0  0
    3.8103    0.5179    1.8387 H   0  0  0  0  0  0
    2.4498   -0.0849    2.7898 H   0  0  0  0  0  0
    3.4866   -1.2083    1.8968 H   0  0  0  0  0  0
    0.6051    1.3332   -0.1274 H   0  0  0  0  0  0
    0.9078    1.4759    1.5955 H   0  0  0  0  0  0
    1.8434    3.3542    0.1840 H   0  0  0  0  0  0
    3.0514    2.5480    1.1769 H   0  0  0  0  0  0
    2.5796    2.0851   -1.8208 H   0  0  0  0  0  0
    3.9733    2.8585   -1.0607 H   0  0  0  0  0  0
    3.5159   -1.1765   -0.6330 H   0  0  0  0  0  0
    2.3193   -0.2814   -1.5668 H   0  0  0  0  0  0
    1.0944   -1.2380    0.8318 N   0  3  0  0  0  0
    0.6326   -1.1052    1.7392 H   0  0  0  0  0  0
    1.6160   -2.1224    0.8395 H   0  0  0  0  0  0
  1  2  1  0  0  0
  1 16  1  0  0  0
  1 17  1  0  0  0
  1 18  1  0  0  0
  2  3  1  0  0  0
  2 19  1  0  0  0
  2 20  1  0  0  0
  3  4  1  0  0  0
  3 21  1  0  0  0
  3 22  1  0  0  0
  4  5  1  0  0  0
  4 23  1  0  0  0
  4 24  1  0  0  0
  5  6  1  0  0  0
  5 25  1  0  0  0
  5 26  1  0  0  0
  6  7  1  0  0  0
  6 27  1  0  0  0
  6 44  1  0  0  0
  7  8  1  0  0  0
  7 28  1  0  0  0
  7 29  1  0  0  0
  8 30  1  0  0  0
  8 31  1  0  0  0
  8 32  1  0  0  0
  9 10  1  0  0  0
  9 11  1  0  0  0
  9 15  1  0  0  0
  9 44  1  0  0  0
 10 33  1  0  0  0
 10 34  1  0  0  0
 10 35  1  0  0  0
 11 12  1  0  0  0
 11 36  1  0  0  0
 11 37  1  0  0  0
 12 13  1  0  0  0
 12 38  1  0  0  0
 12 39  1  0  0  0
 13 14  1  0  0  0
 13 40  1  0  0  0
 13 41  1  0  0  0
 14 15  1  0  0  0
 15 42  1  0  0  0
 15 43  1  0  0  0
 44 45  1  0  0  0
 44 46  1  0  0  0
M  CHG  1  44   1
M  END
> <energy>
38.8653

> <chiral flag>
0

> <version>
0

> <i_ionizer_Ion_state_n>
1

> <i_ionizer_Tot_Q>
1

> <s_ionizer_Ion_centers>
44

> <s_ionizer_Ion_types>
N5

> <s_ionizer_Ion_ctrs_in>
9

> <r_ionizer_Ionization_penalty>
0.000148807

> <r_ionizer_Ionization_penalty_charging>
0.000148807

> <r_ionizer_Ionization_penalty_neutral>
0

$$$$
ZINC001258434806
                    3D
 Structure written by MMmdl.
 46 46  0  0  1  0            999 V2000
   -4.5907    1.3086    1.2413 C   0  0  0  0  0  0
   -3.7667    1.0189   -0.0051 C   0  0  0  0  0  0
   -2.8257   -0.1647    0.2169 C   0  0  0  0  0  0
   -2.0193   -0.4910   -1.0428 C   0  0  0  0  0  0
   -1.0685   -1.6789   -0.8202 C   0  0  0  0  0  0
    0.2674   -1.3026   -0.1240 C   0  0  1  0  0  0
    1.0504   -2.5675    0.2820 C   0  0  0  0  0  0
    0.3633   -3.4012    1.3587 C   0  0  0  0  0  0
    2.1592    0.3534   -0.6661 C   0  0  1  0  0  0
    3.4863   -0.3667   -0.9877 C   0  0  0  0  0  0
    2.1881    0.8100    0.8172 C   0  0  0  0  0  0
    1.2898    2.0209    1.0306 C   0  0  0  0  0  0
    1.7637    3.1917    0.1685 C   0  0  0  0  0  0
    2.6026    2.7812   -0.9143 O   0  0  0  0  0  0
    2.0769    1.6283   -1.5759 C   0  0  0  0  0  0
   -5.2575    2.1591    1.0650 H   0  0  0  0  0  0
   -5.2044    0.4452    1.5186 H   0  0  0  0  0  0
   -3.9433    1.5558    2.0892 H   0  0  0  0  0  0
   -4.4418    0.8105   -0.8439 H   0  0  0  0  0  0
   -3.1863    1.9104   -0.2690 H   0  0  0  0  0  0
   -2.1510    0.0549    1.0518 H   0  0  0  0  0  0
   -3.4148   -1.0456    0.5025 H   0  0  0  0  0  0
   -1.4736    0.3931   -1.3864 H   0  0  0  0  0  0
   -2.7199   -0.7570   -1.8439 H   0  0  0  0  0  0
   -1.6075   -2.4429   -0.2497 H   0  0  0  0  0  0
   -0.8490   -2.1373   -1.7941 H   0  0  0  0  0  0
    0.0177   -0.7244    0.7710 H   0  0  0  0  0  0
    1.2347   -3.1997   -0.5955 H   0  0  0  0  0  0
    2.0299   -2.2874    0.6806 H   0  0  0  0  0  0
    0.1130   -2.7891    2.2300 H   0  0  0  0  0  0
   -0.5520   -3.8705    0.9886 H   0  0  0  0  0  0
    1.0275   -4.2089    1.6872 H   0  0  0  0  0  0
    3.6531   -1.2325   -0.3407 H   0  0  0  0  0  0
    3.5145   -0.7140   -2.0287 H   0  0  0  0  0  0
    4.3385    0.3122   -0.8540 H   0  0  0  0  0  0
    1.9254    0.0006    1.5053 H   0  0  0  0  0  0
    3.2113    1.0989    1.0982 H   0  0  0  0  0  0
    1.2704    2.3181    2.0856 H   0  0  0  0  0  0
    0.2574    1.7660    0.7687 H   0  0  0  0  0  0
    2.3508    3.8851    0.7784 H   0  0  0  0  0  0
    0.9068    3.7497   -0.2264 H   0  0  0  0  0  0
    2.6391    1.4869   -2.5058 H   0  0  0  0  0  0
    1.0447    1.8571   -1.8722 H   0  0  0  0  0  0
    0.9985   -0.4920   -1.1704 N   0  3  0  0  0  0
    1.3663   -1.1443   -1.8728 H   0  0  0  0  0  0
    0.3185    0.1383   -1.6114 H   0  0  0  0  0  0
  1  2  1  0  0  0
  1 16  1  0  0  0
  1 17  1  0  0  0
  1 18  1  0  0  0
  2  3  1  0  0  0
  2 19  1  0  0  0
  2 20  1  0  0  0
  3  4  1  0  0  0
  3 21  1  0  0  0
  3 22  1  0  0  0
  4  5  1  0  0  0
  4 23  1  0  0  0
  4 24  1  0  0  0
  5  6  1  0  0  0
  5 25  1  0  0  0
  5 26  1  0  0  0
  6  7  1  0  0  0
  6 27  1  0  0  0
  6 44  1  0  0  0
  7  8  1  0  0  0
  7 28  1  0  0  0
  7 29  1  0  0  0
  8 30  1  0  0  0
  8 31  1  0  0  0
  8 32  1  0  0  0
  9 10  1  0  0  0
  9 11  1  0  0  0
  9 15  1  0  0  0
  9 44  1  0  0  0
 10 33  1  0  0  0
 10 34  1  0  0  0
 10 35  1  0  0  0
 11 12  1  0  0  0
 11 36  1  0  0  0
 11 37  1  0  0  0
 12 13  1  0  0  0
 12 38  1  0  0  0
 12 39  1  0  0  0
 13 14  1  0  0  0
 13 40  1  0  0  0
 13 41  1  0  0  0
 14 15  1  0  0  0
 15 42  1  0  0  0
 15 43  1  0  0  0
 44 45  1  0  0  0
 44 46  1  0  0  0
M  CHG  1  44   1
M  END
> <energy>
43.4414

> <chiral flag>
0

> <version>
0

> <i_ionizer_Ion_state_n>
1

> <i_ionizer_Tot_Q>
1

> <s_ionizer_Ion_centers>
44

> <s_ionizer_Ion_types>
N5

> <s_ionizer_Ion_ctrs_in>
9

> <r_ionizer_Ionization_penalty>
0.000148807

> <r_ionizer_Ionization_penalty_charging>
0.000148807

> <r_ionizer_Ionization_penalty_neutral>
0

$$$$
ZINC001258434860
                    3D
 Structure written by MMmdl.
 43 44  0  0  1  0            999 V2000
   -4.1757    1.4908    0.1789 C   0  0  0  0  0  0
   -3.6169    0.0757    0.2108 C   0  0  0  0  0  0
   -2.2708   -0.0163   -0.5103 C   0  0  0  0  0  0
   -1.7325   -1.4531   -0.5331 C   0  0  0  0  0  0
   -0.3226   -1.5400   -1.1431 C   0  0  0  0  0  0
    0.8591   -1.5504   -0.1434 C   0  0  2  0  0  0
    0.9929   -2.8640    0.6566 C   0  0  0  0  0  0
    1.3169   -4.0745   -0.2100 C   0  0  0  0  0  0
    2.0124    0.1774    1.1825 C   0  0  2  0  0  0
    1.9871    1.4707    1.9399 C   0  0  0  0  0  0
    2.4942    1.4541    0.5184 C   0  0  2  0  0  0
    1.7343    2.1345   -0.6242 C   0  0  0  0  0  0
    2.2834    3.3461   -1.3427 C   0  0  0  0  0  0
    1.0743    3.4850   -0.4703 C   0  0  0  0  0  0
   -5.1309    1.5349    0.7103 H   0  0  0  0  0  0
   -3.4895    2.1965    0.6574 H   0  0  0  0  0  0
   -4.3456    1.8235   -0.8501 H   0  0  0  0  0  0
   -4.3391   -0.6065   -0.2513 H   0  0  0  0  0  0
   -3.4979   -0.2362    1.2543 H   0  0  0  0  0  0
   -1.5588    0.6561   -0.0215 H   0  0  0  0  0  0
   -2.3863    0.3406   -1.5408 H   0  0  0  0  0  0
   -1.7566   -1.8896    0.4702 H   0  0  0  0  0  0
   -2.4124   -2.0566   -1.1489 H   0  0  0  0  0  0
   -0.2710   -2.4453   -1.7595 H   0  0  0  0  0  0
   -0.1829   -0.7068   -1.8449 H   0  0  0  0  0  0
    1.7702   -1.4293   -0.7467 H   0  0  0  0  0  0
    0.0828   -3.0676    1.2323 H   0  0  0  0  0  0
    1.8037   -2.7588    1.3880 H   0  0  0  0  0  0
    2.1757   -3.8754   -0.8596 H   0  0  0  0  0  0
    1.5654   -4.9327    0.4229 H   0  0  0  0  0  0
    0.4676   -4.3629   -0.8342 H   0  0  0  0  0  0
    2.7792   -0.5302    1.4944 H   0  0  0  0  0  0
    1.0273    1.9343    2.1329 H   0  0  0  0  0  0
    2.7112    1.6050    2.7344 H   0  0  0  0  0  0
    3.5783    1.5233    0.4122 H   0  0  0  0  0  0
    1.2005    1.4314   -1.2648 H   0  0  0  0  0  0
    3.2102    3.7815   -0.9878 H   0  0  0  0  0  0
    2.1431    3.4004   -2.4167 H   0  0  0  0  0  0
    1.1899    4.0085    0.4714 H   0  0  0  0  0  0
    0.1108    3.6275   -0.9440 H   0  0  0  0  0  0
    0.7042   -0.4049    0.7932 N   0  3  0  0  0  0
    0.1407    0.3221    0.3370 H   0  0  0  0  0  0
    0.2222   -0.7313    1.6389 H   0  0  0  0  0  0
  1  2  1  0  0  0
  1 15  1  0  0  0
  1 16  1  0  0  0
  1 17  1  0  0  0
  2  3  1  0  0  0
  2 18  1  0  0  0
  2 19  1  0  0  0
  3  4  1  0  0  0
  3 20  1  0  0  0
  3 21  1  0  0  0
  4  5  1  0  0  0
  4 22  1  0  0  0
  4 23  1  0  0  0
  5  6  1  0  0  0
  5 24  1  0  0  0
  5 25  1  0  0  0
  6  7  1  0  0  0
  6 26  1  0  0  0
  6 41  1  0  0  0
  7  8  1  0  0  0
  7 27  1  0  0  0
  7 28  1  0  0  0
  8 29  1  0  0  0
  8 30  1  0  0  0
  8 31  1  0  0  0
  9 10  1  0  0  0
  9 11  1  0  0  0
  9 32  1  0  0  0
  9 41  1  0  0  0
 10 11  1  0  0  0
 10 33  1  0  0  0
 10 34  1  0  0  0
 11 12  1  0  0  0
 11 35  1  0  0  0
 12 13  1  0  0  0
 12 14  1  0  0  0
 12 36  1  0  0  0
 13 14  1  0  0  0
 13 37  1  0  0  0
 13 38  1  0  0  0
 14 39  1  0  0  0
 14 40  1  0  0  0
 41 42  1  0  0  0
 41 43  1  0  0  0
M  CHG  1  41   1
M  END
> <energy>
14.8612

> <chiral flag>
0

> <version>
0

> <i_ionizer_Ion_state_n>
1

> <i_ionizer_Tot_Q>
1

> <s_ionizer_Ion_centers>
41

> <s_ionizer_Ion_types>
N5

> <s_ionizer_Ion_ctrs_in>
9

> <r_ionizer_Ionization_penalty>
0.000148807

> <r_ionizer_Ionization_penalty_charging>
0.000148807

> <r_ionizer_Ionization_penalty_neutral>
0

$$$$
ZINC001258434861
                    3D
 Structure written by MMmdl.
 43 44  0  0  1  0            999 V2000
   -4.6195    0.9891   -0.8399 C   0  0  0  0  0  0
   -3.9745   -0.2100   -0.1625 C   0  0  0  0  0  0
   -2.8559   -0.8079   -1.0235 C   0  0  0  0  0  0
   -2.1503   -1.9901   -0.3467 C   0  0  0  0  0  0
   -1.1778   -1.5773    0.7703 C   0  0  0  0  0  0
    0.2195   -1.1542    0.2521 C   0  0  2  0  0  0
    1.0627   -2.4031   -0.0958 C   0  0  0  0  0  0
    2.4217   -2.0847   -0.7080 C   0  0  0  0  0  0
    0.5601    1.0323    1.3367 C   0  0  1  0  0  0
    1.4892    1.9937    2.0233 C   0  0  0  0  0  0
    1.3144    2.0687    0.5281 C   0  0  1  0  0  0
    2.4117    1.7152   -0.4726 C   0  0  0  0  0  0
    3.4144    2.7401   -0.9513 C   0  0  0  0  0  0
    3.8750    1.5827   -0.1222 C   0  0  0  0  0  0
   -3.8858    1.7853   -1.0039 H   0  0  0  0  0  0
   -5.4219    1.3905   -0.2128 H   0  0  0  0  0  0
   -5.0509    0.7111   -1.8067 H   0  0  0  0  0  0
   -4.7404   -0.9725    0.0258 H   0  0  0  0  0  0
   -3.5903    0.1060    0.8133 H   0  0  0  0  0  0
   -3.2975   -1.1625   -1.9633 H   0  0  0  0  0  0
   -2.1287   -0.0325   -1.2896 H   0  0  0  0  0  0
   -2.9082   -2.6626    0.0716 H   0  0  0  0  0  0
   -1.6226   -2.5665   -1.1145 H   0  0  0  0  0  0
   -1.0605   -2.4272    1.4566 H   0  0  0  0  0  0
   -1.6330   -0.7790    1.3656 H   0  0  0  0  0  0
    0.1145   -0.5452   -0.6533 H   0  0  0  0  0  0
    0.5167   -3.0352   -0.8055 H   0  0  0  0  0  0
    1.2194   -3.0112    0.8059 H   0  0  0  0  0  0
    2.9452   -3.0144   -0.9564 H   0  0  0  0  0  0
    2.3070   -1.5085   -1.6313 H   0  0  0  0  0  0
    3.0553   -1.5215   -0.0173 H   0  0  0  0  0  0
   -0.5006    1.2207    1.4916 H   0  0  0  0  0  0
    1.0488    2.7808    2.6242 H   0  0  0  0  0  0
    2.4216    1.6105    2.4204 H   0  0  0  0  0  0
    0.6840    2.8871    0.1761 H   0  0  0  0  0  0
    2.0625    1.0339   -1.2500 H   0  0  0  0  0  0
    3.4126    3.7186   -0.4867 H   0  0  0  0  0  0
    3.6660    2.7450   -2.0049 H   0  0  0  0  0  0
    4.1922    1.7873    0.8930 H   0  0  0  0  0  0
    4.4309    0.7864   -0.6036 H   0  0  0  0  0  0
    0.9609   -0.3969    1.2985 N   0  3  0  0  0  0
    0.7681   -0.8202    2.2139 H   0  0  0  0  0  0
    1.9666   -0.4543    1.0999 H   0  0  0  0  0  0
  1  2  1  0  0  0
  1 15  1  0  0  0
  1 16  1  0  0  0
  1 17  1  0  0  0
  2  3  1  0  0  0
  2 18  1  0  0  0
  2 19  1  0  0  0
  3  4  1  0  0  0
  3 20  1  0  0  0
  3 21  1  0  0  0
  4  5  1  0  0  0
  4 22  1  0  0  0
  4 23  1  0  0  0
  5  6  1  0  0  0
  5 24  1  0  0  0
  5 25  1  0  0  0
  6  7  1  0  0  0
  6 26  1  0  0  0
  6 41  1  0  0  0
  7  8  1  0  0  0
  7 27  1  0  0  0
  7 28  1  0  0  0
  8 29  1  0  0  0
  8 30  1  0  0  0
  8 31  1  0  0  0
  9 10  1  0  0  0
  9 11  1  0  0  0
  9 32  1  0  0  0
  9 41  1  0  0  0
 10 11  1  0  0  0
 10 33  1  0  0  0
 10 34  1  0  0  0
 11 12  1  0  0  0
 11 35  1  0  0  0
 12 13  1  0  0  0
 12 14  1  0  0  0
 12 36  1  0  0  0
 13 14  1  0  0  0
 13 37  1  0  0  0
 13 38  1  0  0  0
 14 39  1  0  0  0
 14 40  1  0  0  0
 41 42  1  0  0  0
 41 43  1  0  0  0
M  CHG  1  41   1
M  END
> <energy>
13.6254

> <chiral flag>
0

> <version>
0

> <i_ionizer_Ion_state_n>
1

> <i_ionizer_Tot_Q>
1

> <s_ionizer_Ion_centers>
41

> <s_ionizer_Ion_types>
N5

> <s_ionizer_Ion_ctrs_in>
9

> <r_ionizer_Ionization_penalty>
0.000148807

> <r_ionizer_Ionization_penalty_charging>
0.000148807

> <r_ionizer_Ionization_penalty_neutral>
0

$$$$
ZINC001258434862
                    3D
 Structure written by MMmdl.
 43 44  0  0  1  0            999 V2000
    3.7550    0.7561   -0.3557 C   0  0  0  0  0  0
    3.3301   -0.1624    0.7819 C   0  0  0  0  0  0
    2.8095   -1.5097    0.2750 C   0  0  0  0  0  0
    1.3247   -1.4840   -0.1221 C   0  0  0  0  0  0
    0.4083   -1.8570    1.0508 C   0  0  0  0  0  0
   -1.1156   -1.7414    0.8010 C   0  0  2  0  0  0
   -1.5430   -1.8529   -0.6740 C   0  0  0  0  0  0
   -3.0500   -1.9687   -0.8737 C   0  0  0  0  0  0
   -1.2459    0.7396    1.1115 C   0  0  2  0  0  0
   -2.1066    1.8842    1.5695 C   0  0  0  0  0  0
   -1.9790    1.5860    0.0995 C   0  0  1  0  0  0
   -1.3311    2.6035   -0.8329 C   0  0  0  0  0  0
   -0.6713    2.1966   -2.1267 C   0  0  0  0  0  0
    0.1589    2.7627   -1.0141 C   0  0  0  0  0  0
    4.0663    1.7284    0.0371 H   0  0  0  0  0  0
    2.9435    0.9169   -1.0707 H   0  0  0  0  0  0
    4.6033    0.3315   -0.9025 H   0  0  0  0  0  0
    2.5804    0.3376    1.4043 H   0  0  0  0  0  0
    4.2043   -0.3412    1.4168 H   0  0  0  0  0  0
    2.9675   -2.2718    1.0484 H   0  0  0  0  0  0
    3.4084   -1.8259   -0.5896 H   0  0  0  0  0  0
    1.0528   -0.5118   -0.5428 H   0  0  0  0  0  0
    1.1850   -2.2235   -0.9191 H   0  0  0  0  0  0
    0.6895   -1.2792    1.9396 H   0  0  0  0  0  0
    0.6210   -2.9012    1.3178 H   0  0  0  0  0  0
   -1.5572   -2.6136    1.3039 H   0  0  0  0  0  0
   -1.1778   -0.9980   -1.2507 H   0  0  0  0  0  0
   -1.0873   -2.7507   -1.1099 H   0  0  0  0  0  0
   -3.4470   -2.8402   -0.3447 H   0  0  0  0  0  0
   -3.2751   -2.0935   -1.9374 H   0  0  0  0  0  0
   -3.5846   -1.0808   -0.5254 H   0  0  0  0  0  0
   -0.1747    0.8996    1.2125 H   0  0  0  0  0  0
   -3.0555    1.6660    2.0432 H   0  0  0  0  0  0
   -1.6073    2.7604    1.9643 H   0  0  0  0  0  0
   -2.8484    1.1075   -0.3517 H   0  0  0  0  0  0
   -1.8995    3.5349   -0.8875 H   0  0  0  0  0  0
   -0.8552    2.8137   -2.9966 H   0  0  0  0  0  0
   -0.5689    1.1397   -2.3439 H   0  0  0  0  0  0
    0.5444    3.7711   -1.1162 H   0  0  0  0  0  0
    0.8293    2.0885   -0.4954 H   0  0  0  0  0  0
   -1.7558   -0.6026    1.5374 N   0  3  0  0  0  0
   -2.7684   -0.6346    1.3702 H   0  0  0  0  0  0
   -1.5708   -0.7182    2.5407 H   0  0  0  0  0  0
  1  2  1  0  0  0
  1 15  1  0  0  0
  1 16  1  0  0  0
  1 17  1  0  0  0
  2  3  1  0  0  0
  2 18  1  0  0  0
  2 19  1  0  0  0
  3  4  1  0  0  0
  3 20  1  0  0  0
  3 21  1  0  0  0
  4  5  1  0  0  0
  4 22  1  0  0  0
  4 23  1  0  0  0
  5  6  1  0  0  0
  5 24  1  0  0  0
  5 25  1  0  0  0
  6  7  1  0  0  0
  6 26  1  0  0  0
  6 41  1  0  0  0
  7  8  1  0  0  0
  7 27  1  0  0  0
  7 28  1  0  0  0
  8 29  1  0  0  0
  8 30  1  0  0  0
  8 31  1  0  0  0
  9 10  1  0  0  0
  9 11  1  0  0  0
  9 32  1  0  0  0
  9 41  1  0  0  0
 10 11  1  0  0  0
 10 33  1  0  0  0
 10 34  1  0  0  0
 11 12  1  0  0  0
 11 35  1  0  0  0
 12 13  1  0  0  0
 12 14  1  0  0  0
 12 36  1  0  0  0
 13 14  1  0  0  0
 13 37  1  0  0  0
 13 38  1  0  0  0
 14 39  1  0  0  0
 14 40  1  0  0  0
 41 42  1  0  0  0
 41 43  1  0  0  0
M  CHG  1  41   1
M  END
> <energy>
18.3565

> <chiral flag>
0

> <version>
0

> <i_ionizer_Ion_state_n>
1

> <i_ionizer_Tot_Q>
1

> <s_ionizer_Ion_centers>
41

> <s_ionizer_Ion_types>
N5

> <s_ionizer_Ion_ctrs_in>
9

> <r_ionizer_Ionization_penalty>
0.000148807

> <r_ionizer_Ionization_penalty_charging>
0.000148807

> <r_ionizer_Ionization_penalty_neutral>
0

$$$$
ZINC001258434863
                    3D
 Structure written by MMmdl.
 43 44  0  0  1  0            999 V2000
   -5.0206    2.1226    0.1448 C   0  0  0  0  0  0
   -3.6235    1.5464   -0.0111 C   0  0  0  0  0  0
   -3.6022    0.3383   -0.9523 C   0  0  0  0  0  0
   -2.1904   -0.2375   -1.0951 C   0  0  0  0  0  0
   -1.7522   -1.1006    0.0990 C   0  0  0  0  0  0
   -0.2151   -1.1301    0.2456 C   0  0  2  0  0  0
    0.2778   -2.2896    1.1314 C   0  0  0  0  0  0
    0.0732   -3.6579    0.4918 C   0  0  0  0  0  0
    1.2635    0.8388    0.1175 C   0  0  1  0  0  0
    2.0952    1.8654    0.8217 C   0  0  0  0  0  0
    2.7199    0.5548    0.4132 C   0  0  2  0  0  0
    3.7452    0.4358   -0.7134 C   0  0  0  0  0  0
    5.1961    0.1106   -0.4373 C   0  0  0  0  0  0
    4.8240    1.4652   -0.9605 C   0  0  0  0  0  0
   -5.4352    2.4245   -0.8236 H   0  0  0  0  0  0
   -5.6970    1.3934    0.6019 H   0  0  0  0  0  0
   -4.9898    3.0088    0.7908 H   0  0  0  0  0  0
   -3.2401    1.2769    0.9801 H   0  0  0  0  0  0
   -2.9616    2.3261   -0.4084 H   0  0  0  0  0  0
   -3.9426    0.6641   -1.9452 H   0  0  0  0  0  0
   -4.3006   -0.4393   -0.6167 H   0  0  0  0  0  0
   -1.4857    0.5824   -1.2712 H   0  0  0  0  0  0
   -2.1588   -0.8659   -1.9948 H   0  0  0  0  0  0
   -2.1544   -2.1042   -0.0667 H   0  0  0  0  0  0
   -2.2044   -0.7518    1.0346 H   0  0  0  0  0  0
    0.2260   -1.2499   -0.7542 H   0  0  0  0  0  0
   -0.2234   -2.2694    2.1070 H   0  0  0  0  0  0
    1.3505   -2.1711    1.3231 H   0  0  0  0  0  0
   -0.9866   -3.8795    0.3237 H   0  0  0  0  0  0
    0.5948   -3.7212   -0.4717 H   0  0  0  0  0  0
    0.4707   -4.4427    1.1467 H   0  0  0  0  0  0
    1.0120    1.0743   -0.9154 H   0  0  0  0  0  0
    2.3523    2.7661    0.2718 H   0  0  0  0  0  0
    1.9373    2.0372    1.8815 H   0  0  0  0  0  0
    2.9073   -0.1403    1.2329 H   0  0  0  0  0  0
    3.3430   -0.0345   -1.6117 H   0  0  0  0  0  0
    5.5259    0.0410    0.5909 H   0  0  0  0  0  0
    5.6891   -0.5809   -1.1068 H   0  0  0  0  0  0
    4.9038    2.3068   -0.2819 H   0  0  0  0  0  0
    5.0680    1.7003   -1.9910 H   0  0  0  0  0  0
    0.1772    0.1668    0.8728 N   0  3  0  0  0  0
   -0.6420    0.7852    0.8975 H   0  0  0  0  0  0
    0.5002   -0.0118    1.8310 H   0  0  0  0  0  0
  1  2  1  0  0  0
  1 15  1  0  0  0
  1 16  1  0  0  0
  1 17  1  0  0  0
  2  3  1  0  0  0
  2 18  1  0  0  0
  2 19  1  0  0  0
  3  4  1  0  0  0
  3 20  1  0  0  0
  3 21  1  0  0  0
  4  5  1  0  0  0
  4 22  1  0  0  0
  4 23  1  0  0  0
  5  6  1  0  0  0
  5 24  1  0  0  0
  5 25  1  0  0  0
  6  7  1  0  0  0
  6 26  1  0  0  0
  6 41  1  0  0  0
  7  8  1  0  0  0
  7 27  1  0  0  0
  7 28  1  0  0  0
  8 29  1  0  0  0
  8 30  1  0  0  0
  8 31  1  0  0  0
  9 10  1  0  0  0
  9 11  1  0  0  0
  9 32  1  0  0  0
  9 41  1  0  0  0
 10 11  1  0  0  0
 10 33  1  0  0  0
 10 34  1  0  0  0
 11 12  1  0  0  0
 11 35  1  0  0  0
 12 13  1  0  0  0
 12 14  1  0  0  0
 12 36  1  0  0  0
 13 14  1  0  0  0
 13 37  1  0  0  0
 13 38  1  0  0  0
 14 39  1  0  0  0
 14 40  1  0  0  0
 41 42  1  0  0  0
 41 43  1  0  0  0
M  CHG  1  41   1
M  END
> <energy>
15.1138

> <chiral flag>
0

> <version>
0

> <i_ionizer_Ion_state_n>
1

> <i_ionizer_Tot_Q>
1

> <s_ionizer_Ion_centers>
41

> <s_ionizer_Ion_types>
N5

> <s_ionizer_Ion_ctrs_in>
9

> <r_ionizer_Ionization_penalty>
0.000148807

> <r_ionizer_Ionization_penalty_charging>
0.000148807

> <r_ionizer_Ionization_penalty_neutral>
0

$$$$
ZINC001258435357
                    3D
 Structure written by MMmdl.
 42 43  0  0  1  0            999 V2000
   -3.0933    2.1435    1.5757 C   0  0  0  0  0  0
   -2.8668    0.8348    0.8432 C   0  0  0  0  0  0
   -1.4944    0.2143    1.1179 C   0  0  0  0  0  0
   -1.3941   -1.0966    0.3574 C   0  0  0  0  0  0
   -0.2619   -2.0196    0.7724 C   0  0  0  0  0  0
    1.2108   -1.5433    0.7515 C   0  0  2  0  0  0
    1.6265   -0.9217    2.1224 C   0  0  0  0  0  0
    3.0977   -1.1633    2.4384 C   0  0  0  0  0  0
    1.8216    0.5832   -0.5547 C   0  0  0  0  0  0
    0.9377    0.9455   -1.7108 C   0  0  0  0  0  0
    0.4936    2.1709   -2.1687 C   0  0  0  0  0  0
   -0.3448    2.1856   -3.2881 C   0  0  0  0  0  0
   -0.7060    0.9732   -3.8782 C   0  0  0  0  0  0
   -0.2616   -0.2403   -3.4568 N   0  0  0  0  0  0
    0.5602   -0.2005   -2.3927 C   0  0  0  0  0  0
    1.2487   -1.3853   -1.7568 C   0  0  0  0  0  0
   -2.4085    2.9165    1.2185 H   0  0  0  0  0  0
   -4.1229    2.4770    1.3931 H   0  0  0  0  0  0
   -2.9586    2.0234    2.6551 H   0  0  0  0  0  0
   -2.9879    0.9970   -0.2347 H   0  0  0  0  0  0
   -3.6422    0.1256    1.1502 H   0  0  0  0  0  0
   -0.6973    0.9000    0.8193 H   0  0  0  0  0  0
   -1.3669    0.0398    2.1918 H   0  0  0  0  0  0
   -2.3198   -1.6620    0.5124 H   0  0  0  0  0  0
   -1.3761   -0.8998   -0.7145 H   0  0  0  0  0  0
   -0.4938   -2.3859    1.7866 H   0  0  0  0  0  0
   -0.3471   -2.9133    0.1403 H   0  0  0  0  0  0
    1.7375   -2.5101    0.7518 H   0  0  0  0  0  0
    1.3975    0.1475    2.1822 H   0  0  0  0  0  0
    1.0540   -1.3837    2.9403 H   0  0  0  0  0  0
    3.3011   -2.2405    2.4918 H   0  0  0  0  0  0
    3.7382   -0.7383    1.6678 H   0  0  0  0  0  0
    3.3749   -0.7362    3.4105 H   0  0  0  0  0  0
    2.8542    0.8810   -0.7907 H   0  0  0  0  0  0
    1.5269    1.1290    0.3411 H   0  0  0  0  0  0
    0.7868    3.1014   -1.6841 H   0  0  0  0  0  0
   -0.7111    3.1213   -3.7083 H   0  0  0  0  0  0
   -1.3713    0.9414   -4.7392 H   0  0  0  0  0  0
    2.0921   -1.6624   -2.3984 H   0  0  0  0  0  0
    0.5924   -2.2524   -1.7003 H   0  0  0  0  0  0
    1.8699   -0.9144   -0.5036 N   0  3  2  0  0  0
    2.8558   -1.2011   -0.4994 H   0  0  0  0  0  0
  1  2  1  0  0  0
  1 17  1  0  0  0
  1 18  1  0  0  0
  1 19  1  0  0  0
  2  3  1  0  0  0
  2 20  1  0  0  0
  2 21  1  0  0  0
  3  4  1  0  0  0
  3 22  1  0  0  0
  3 23  1  0  0  0
  4  5  1  0  0  0
  4 24  1  0  0  0
  4 25  1  0  0  0
  5  6  1  0  0  0
  5 26  1  0  0  0
  5 27  1  0  0  0
  6  7  1  0  0  0
  6 28  1  0  0  0
  6 41  1  0  0  0
  7  8  1  0  0  0
  7 29  1  0  0  0
  7 30  1  0  0  0
  8 31  1  0  0  0
  8 32  1  0  0  0
  8 33  1  0  0  0
  9 10  1  0  0  0
  9 34  1  0  0  0
  9 35  1  0  0  0
  9 41  1  0  0  0
 10 11  2  0  0  0
 10 15  1  0  0  0
 11 12  1  0  0  0
 11 36  1  0  0  0
 12 13  2  0  0  0
 12 37  1  0  0  0
 13 14  1  0  0  0
 13 38  1  0  0  0
 14 15  2  0  0  0
 15 16  1  0  0  0
 16 39  1  0  0  0
 16 40  1  0  0  0
 16 41  1  0  0  0
 41 42  1  0  0  0
M  CHG  1  41   1
M  END
> <energy>
61.878

> <chiral flag>
0

> <version>
0

> <i_ionizer_Ion_state_n>
1

> <i_ionizer_Tot_Q>
1

> <s_ionizer_Ion_centers>
41

> <s_ionizer_Ion_types>
N5

> <s_ionizer_Ion_ctrs_in>
9

> <r_ionizer_Ionization_penalty>
0.00889878

> <r_ionizer_Ionization_penalty_charging>
0.00148639

> <r_ionizer_Ionization_penalty_neutral>
0.00741239

$$$$
ZINC001258435359
                    3D
 Structure written by MMmdl.
 42 43  0  0  1  0            999 V2000
   -3.9352    0.6605   -1.2511 C   0  0  0  0  0  0
   -3.4083    0.3744    0.1467 C   0  0  0  0  0  0
   -2.6855    1.5713    0.7825 C   0  0  0  0  0  0
   -1.1653    1.3928    0.8695 C   0  0  0  0  0  0
   -0.4616    1.6645   -0.4573 C   0  0  0  0  0  0
    1.0673    1.3945   -0.5010 C   0  0  1  0  0  0
    1.8370    2.3570    0.4391 C   0  0  0  0  0  0
    3.3334    2.4115    0.1378 C   0  0  0  0  0  0
    0.8255   -0.9880   -1.2574 C   0  0  0  0  0  0
    0.9853   -2.2947   -0.5542 C   0  0  0  0  0  0
    0.6894   -3.5757   -0.9691 C   0  0  0  0  0  0
    0.9077   -4.6117   -0.0625 C   0  0  0  0  0  0
    1.3806   -4.3016    1.2134 C   0  0  0  0  0  0
    1.6627   -3.0508    1.6450 N   0  0  0  0  0  0
    1.4626   -2.0848    0.7300 C   0  0  0  0  0  0
    1.6823   -0.6087    0.9467 C   0  0  0  0  0  0
   -3.1296    0.9077   -1.9451 H   0  0  0  0  0  0
   -4.6484    1.4903   -1.2379 H   0  0  0  0  0  0
   -4.4560   -0.2207   -1.6419 H   0  0  0  0  0  0
   -2.7601   -0.5104    0.1177 H   0  0  0  0  0  0
   -4.2665    0.1111    0.7784 H   0  0  0  0  0  0
   -3.0572    1.6760    1.8097 H   0  0  0  0  0  0
   -2.9359    2.5083    0.2686 H   0  0  0  0  0  0
   -0.9592    0.3819    1.2260 H   0  0  0  0  0  0
   -0.7769    2.0871    1.6225 H   0  0  0  0  0  0
   -0.9475    1.1007   -1.2595 H   0  0  0  0  0  0
   -0.6285    2.7173   -0.7256 H   0  0  0  0  0  0
    1.3613    1.6912   -1.5183 H   0  0  0  0  0  0
    1.6893    2.0942    1.4933 H   0  0  0  0  0  0
    1.4369    3.3722    0.3171 H   0  0  0  0  0  0
    3.8105    3.1920    0.7392 H   0  0  0  0  0  0
    3.5069    2.6451   -0.9173 H   0  0  0  0  0  0
    3.8248    1.4615    0.3671 H   0  0  0  0  0  0
   -0.2474   -0.8175   -1.3718 H   0  0  0  0  0  0
    1.3005   -1.0087   -2.2429 H   0  0  0  0  0  0
    0.2877   -3.7692   -1.9592 H   0  0  0  0  0  0
    0.7049   -5.6421   -0.3358 H   0  0  0  0  0  0
    1.5472   -5.0858    1.9453 H   0  0  0  0  0  0
    2.7027   -0.4360    1.2990 H   0  0  0  0  0  0
    0.9761   -0.2550    1.6994 H   0  0  0  0  0  0
    1.6087   -0.0430   -0.4310 N   0  3  2  0  0  0
    2.5646   -0.0151   -0.8048 H   0  0  0  0  0  0
  1  2  1  0  0  0
  1 17  1  0  0  0
  1 18  1  0  0  0
  1 19  1  0  0  0
  2  3  1  0  0  0
  2 20  1  0  0  0
  2 21  1  0  0  0
  3  4  1  0  0  0
  3 22  1  0  0  0
  3 23  1  0  0  0
  4  5  1  0  0  0
  4 24  1  0  0  0
  4 25  1  0  0  0
  5  6  1  0  0  0
  5 26  1  0  0  0
  5 27  1  0  0  0
  6  7  1  0  0  0
  6 28  1  0  0  0
  6 41  1  0  0  0
  7  8  1  0  0  0
  7 29  1  0  0  0
  7 30  1  0  0  0
  8 31  1  0  0  0
  8 32  1  0  0  0
  8 33  1  0  0  0
  9 10  1  0  0  0
  9 34  1  0  0  0
  9 35  1  0  0  0
  9 41  1  0  0  0
 10 11  2  0  0  0
 10 15  1  0  0  0
 11 12  1  0  0  0
 11 36  1  0  0  0
 12 13  2  0  0  0
 12 37  1  0  0  0
 13 14  1  0  0  0
 13 38  1  0  0  0
 14 15  2  0  0  0
 15 16  1  0  0  0
 16 39  1  0  0  0
 16 40  1  0  0  0
 16 41  1  0  0  0
 41 42  1  0  0  0
M  CHG  1  41   1
M  END
> <energy>
55.1996

> <chiral flag>
0

> <version>
0

> <i_ionizer_Ion_state_n>
1

> <i_ionizer_Tot_Q>
1

> <s_ionizer_Ion_centers>
41

> <s_ionizer_Ion_types>
N5

> <s_ionizer_Ion_ctrs_in>
9

> <r_ionizer_Ionization_penalty>
0.00889878

> <r_ionizer_Ionization_penalty_charging>
0.00148639

> <r_ionizer_Ionization_penalty_neutral>
0.00741239

$$$$
ZINC001258435506
                    3D
 Structure written by MMmdl.
 49 49  0  0  1  0            999 V2000
   -5.3023    0.3564    0.6443 C   0  0  0  0  0  0
   -3.9386   -0.1937    1.0300 C   0  0  0  0  0  0
   -3.0676   -0.4517   -0.1993 C   0  0  0  0  0  0
   -1.6625   -0.9109    0.2024 C   0  0  0  0  0  0
   -0.7867   -1.1463   -1.0324 C   0  0  0  0  0  0
    0.7281   -1.3465   -0.8007 C   0  0  2  0  0  0
    1.1018   -2.2449    0.3926 C   0  0  0  0  0  0
    0.5843   -3.6742    0.2533 C   0  0  0  0  0  0
    1.5013    1.0940   -0.1812 C   0  0  0  0  0  0
    0.2988    1.9800   -0.6345 C   0  0  0  0  0  0
    0.2435    2.3451   -2.1161 C   0  0  0  0  0  0
    1.4622    0.9376    1.3582 C   0  0  0  0  0  0
    2.7708    0.4322    1.9535 C   0  0  0  0  0  0
    3.8550    1.2824    1.5891 O   0  0  0  0  0  0
    4.0401    1.2991    0.1757 C   0  0  0  0  0  0
    2.8105    1.8803   -0.5110 C   0  0  0  0  0  0
   -5.2028    1.3125    0.1190 H   0  0  0  0  0  0
   -5.8407   -0.3406   -0.0058 H   0  0  0  0  0  0
   -5.9096    0.5231    1.5394 H   0  0  0  0  0  0
   -4.0689   -1.1251    1.5923 H   0  0  0  0  0  0
   -3.4423    0.5207    1.6972 H   0  0  0  0  0  0
   -2.9955    0.4662   -0.7958 H   0  0  0  0  0  0
   -3.5372   -1.2128   -0.8338 H   0  0  0  0  0  0
   -1.2239   -0.1627    0.8626 H   0  0  0  0  0  0
   -1.7419   -1.8346    0.7860 H   0  0  0  0  0  0
   -1.1736   -2.0441   -1.5355 H   0  0  0  0  0  0
   -0.9369   -0.3457   -1.7644 H   0  0  0  0  0  0
    1.0353   -1.9425   -1.6750 H   0  0  0  0  0  0
    2.1950   -2.3087    0.4678 H   0  0  0  0  0  0
    0.7385   -1.8329    1.3378 H   0  0  0  0  0  0
   -0.5075   -3.7150    0.2295 H   0  0  0  0  0  0
    0.9653   -4.1400   -0.6618 H   0  0  0  0  0  0
    0.9231   -4.2783    1.1012 H   0  0  0  0  0  0
   -0.6496    1.5167   -0.3630 H   0  0  0  0  0  0
    0.3205    2.9237   -0.0727 H   0  0  0  0  0  0
   -0.6565    2.9371   -2.3164 H   0  0  0  0  0  0
    1.1026    2.9535   -2.4146 H   0  0  0  0  0  0
    0.2048    1.4617   -2.7590 H   0  0  0  0  0  0
    1.2726    1.9270    1.7973 H   0  0  0  0  0  0
    0.6384    0.3056    1.6894 H   0  0  0  0  0  0
    2.7006    0.4397    3.0469 H   0  0  0  0  0  0
    3.0022   -0.5929    1.6557 H   0  0  0  0  0  0
    4.9083    1.9332   -0.0322 H   0  0  0  0  0  0
    4.2769    0.2907   -0.1819 H   0  0  0  0  0  0
    2.9924    1.9217   -1.5924 H   0  0  0  0  0  0
    2.6953    2.9190   -0.1726 H   0  0  0  0  0  0
    1.6968   -0.1780   -1.0214 N   0  3  0  0  0  0
    2.6434   -0.5269   -0.8304 H   0  0  0  0  0  0
    1.6252    0.0948   -2.0086 H   0  0  0  0  0  0
  1  2  1  0  0  0
  1 17  1  0  0  0
  1 18  1  0  0  0
  1 19  1  0  0  0
  2  3  1  0  0  0
  2 20  1  0  0  0
  2 21  1  0  0  0
  3  4  1  0  0  0
  3 22  1  0  0  0
  3 23  1  0  0  0
  4  5  1  0  0  0
  4 24  1  0  0  0
  4 25  1  0  0  0
  5  6  1  0  0  0
  5 26  1  0  0  0
  5 27  1  0  0  0
  6  7  1  0  0  0
  6 28  1  0  0  0
  6 47  1  0  0  0
  7  8  1  0  0  0
  7 29  1  0  0  0
  7 30  1  0  0  0
  8 31  1  0  0  0
  8 32  1  0  0  0
  8 33  1  0  0  0
  9 10  1  0  0  0
  9 12  1  0  0  0
  9 16  1  0  0  0
  9 47  1  0  0  0
 10 11  1  0  0  0
 10 34  1  0  0  0
 10 35  1  0  0  0
 11 36  1  0  0  0
 11 37  1  0  0  0
 11 38  1  0  0  0
 12 13  1  0  0  0
 12 39  1  0  0  0
 12 40  1  0  0  0
 13 14  1  0  0  0
 13 41  1  0  0  0
 13 42  1  0  0  0
 14 15  1  0  0  0
 15 16  1  0  0  0
 15 43  1  0  0  0
 15 44  1  0  0  0
 16 45  1  0  0  0
 16 46  1  0  0  0
 47 48  1  0  0  0
 47 49  1  0  0  0
M  CHG  1  47   1
M  END
> <energy>
25.1493

> <chiral flag>
0

> <version>
0

> <i_ionizer_Ion_state_n>
1

> <i_ionizer_Tot_Q>
1

> <s_ionizer_Ion_centers>
47

> <s_ionizer_Ion_types>
N5

> <s_ionizer_Ion_ctrs_in>
9

> <r_ionizer_Ionization_penalty>
0.000148807

> <r_ionizer_Ionization_penalty_charging>
0.000148807

> <r_ionizer_Ionization_penalty_neutral>
0

$$$$
ZINC001258435507
                    3D
 Structure written by MMmdl.
 49 49  0  0  1  0            999 V2000
   -5.3286    1.1364   -0.3262 C   0  0  0  0  0  0
   -4.1948    0.5492    0.4992 C   0  0  0  0  0  0
   -3.1007   -0.0445   -0.3903 C   0  0  0  0  0  0
   -1.9171   -0.5447    0.4420 C   0  0  0  0  0  0
   -0.8391   -1.1852   -0.4466 C   0  0  0  0  0  0
    0.4240   -1.6018    0.3352 C   0  0  1  0  0  0
    1.4176   -2.5524   -0.3714 C   0  0  0  0  0  0
    1.0541   -3.0096   -1.7743 C   0  0  0  0  0  0
    1.7545    0.6631    0.6605 C   0  0  0  0  0  0
    1.8010    1.5416    1.9727 C   0  0  0  0  0  0
    0.4499    1.8956    2.5910 C   0  0  0  0  0  0
    3.2476    0.4292    0.2696 C   0  0  0  0  0  0
    3.5253    0.2643   -1.2194 C   0  0  0  0  0  0
    2.8810    1.2809   -1.9761 O   0  0  0  0  0  0
    1.4671    1.1737   -1.8532 C   0  0  0  0  0  0
    1.0424    1.4984   -0.4308 C   0  0  0  0  0  0
   -4.9689    1.9549   -0.9576 H   0  0  0  0  0  0
   -5.7809    0.3765   -0.9711 H   0  0  0  0  0  0
   -6.1088    1.5340    0.3303 H   0  0  0  0  0  0
   -4.5946   -0.2283    1.1605 H   0  0  0  0  0  0
   -3.7740    1.3342    1.1384 H   0  0  0  0  0  0
   -2.7510    0.7151   -1.1011 H   0  0  0  0  0  0
   -3.5149   -0.8715   -0.9795 H   0  0  0  0  0  0
   -2.2687   -1.2830    1.1726 H   0  0  0  0  0  0
   -1.5056    0.2939    1.0100 H   0  0  0  0  0  0
   -0.6016   -0.5273   -1.2821 H   0  0  0  0  0  0
   -1.2939   -2.0796   -0.8911 H   0  0  0  0  0  0
   -0.0018   -2.2487    1.1183 H   0  0  0  0  0  0
    2.4208   -2.1276   -0.3902 H   0  0  0  0  0  0
    1.5302   -3.4509    0.2518 H   0  0  0  0  0  0
    0.9440   -2.1639   -2.4577 H   0  0  0  0  0  0
    1.8461   -3.6534   -2.1697 H   0  0  0  0  0  0
    0.1285   -3.5925   -1.7764 H   0  0  0  0  0  0
    2.3232    2.4846    1.7614 H   0  0  0  0  0  0
    2.4057    1.0341    2.7381 H   0  0  0  0  0  0
   -0.0763    1.0058    2.9483 H   0  0  0  0  0  0
   -0.1950    2.4226    1.8823 H   0  0  0  0  0  0
    0.5998    2.5558    3.4517 H   0  0  0  0  0  0
    3.6770   -0.4147    0.8249 H   0  0  0  0  0  0
    3.8292    1.3062    0.5873 H   0  0  0  0  0  0
    4.6031    0.3528   -1.3981 H   0  0  0  0  0  0
    3.2287   -0.7107   -1.6089 H   0  0  0  0  0  0
    1.1525    0.1813   -2.1817 H   0  0  0  0  0  0
    1.0203    1.8987   -2.5416 H   0  0  0  0  0  0
    1.2980    2.5561   -0.2742 H   0  0  0  0  0  0
   -0.0453    1.4553   -0.3363 H   0  0  0  0  0  0
    1.1001   -0.5967    1.2679 N   0  3  0  0  0  0
    0.3860   -0.2753    1.9319 H   0  0  0  0  0  0
    1.8351   -1.1039    1.7745 H   0  0  0  0  0  0
  1  2  1  0  0  0
  1 17  1  0  0  0
  1 18  1  0  0  0
  1 19  1  0  0  0
  2  3  1  0  0  0
  2 20  1  0  0  0
  2 21  1  0  0  0
  3  4  1  0  0  0
  3 22  1  0  0  0
  3 23  1  0  0  0
  4  5  1  0  0  0
  4 24  1  0  0  0
  4 25  1  0  0  0
  5  6  1  0  0  0
  5 26  1  0  0  0
  5 27  1  0  0  0
  6  7  1  0  0  0
  6 28  1  0  0  0
  6 47  1  0  0  0
  7  8  1  0  0  0
  7 29  1  0  0  0
  7 30  1  0  0  0
  8 31  1  0  0  0
  8 32  1  0  0  0
  8 33  1  0  0  0
  9 10  1  0  0  0
  9 12  1  0  0  0
  9 16  1  0  0  0
  9 47  1  0  0  0
 10 11  1  0  0  0
 10 34  1  0  0  0
 10 35  1  0  0  0
 11 36  1  0  0  0
 11 37  1  0  0  0
 11 38  1  0  0  0
 12 13  1  0  0  0
 12 39  1  0  0  0
 12 40  1  0  0  0
 13 14  1  0  0  0
 13 41  1  0  0  0
 13 42  1  0  0  0
 14 15  1  0  0  0
 15 16  1  0  0  0
 15 43  1  0  0  0
 15 44  1  0  0  0
 16 45  1  0  0  0
 16 46  1  0  0  0
 47 48  1  0  0  0
 47 49  1  0  0  0
M  CHG  1  47   1
M  END
> <energy>
34.2795

> <chiral flag>
0

> <version>
0

> <i_ionizer_Ion_state_n>
1

> <i_ionizer_Tot_Q>
1

> <s_ionizer_Ion_centers>
47

> <s_ionizer_Ion_types>
N5

> <s_ionizer_Ion_ctrs_in>
9

> <r_ionizer_Ionization_penalty>
0.000148807

> <r_ionizer_Ionization_penalty_charging>
0.000148807

> <r_ionizer_Ionization_penalty_neutral>
0

$$$$
ZINC001258435630
                    3D
 Structure written by MMmdl.
 49 49  0  0  1  0            999 V2000
   -2.3065    3.1722   -1.1306 C   0  0  0  0  0  0
   -2.7393    2.7190    0.2564 C   0  0  0  0  0  0
   -3.5614    1.4239    0.2537 C   0  0  0  0  0  0
   -2.8438    0.1857   -0.2983 C   0  0  0  0  0  0
   -1.7380   -0.3340    0.6300 C   0  0  0  0  0  0
   -0.7618   -1.3217   -0.0609 C   0  0  2  0  0  0
   -1.4711   -2.6126   -0.5389 C   0  0  0  0  0  0
   -0.6011   -3.5167   -1.4044 C   0  0  0  0  0  0
    0.2658   -2.5799    1.8257 C   0  0  0  0  0  0
    1.6912   -1.4160    0.2297 C   0  0  0  0  0  0
    2.0910    0.0485   -0.0543 C   0  0  0  0  0  0
    2.1948    0.8744    1.2400 C   0  0  0  0  0  0
    2.7066    2.2759    0.9441 C   0  0  0  0  0  0
    3.9634    2.2232    0.2697 O   0  0  0  0  0  0
    3.8680    1.5599   -0.9902 C   0  0  0  0  0  0
    3.4275    0.1127   -0.8072 C   0  0  0  0  0  0
   -1.5530    2.5015   -1.5527 H   0  0  0  0  0  0
   -1.8629    4.1724   -1.0809 H   0  0  0  0  0  0
   -3.1570    3.2144   -1.8181 H   0  0  0  0  0  0
   -3.3509    3.5111    0.7047 H   0  0  0  0  0  0
   -1.8567    2.6154    0.8943 H   0  0  0  0  0  0
   -4.4688    1.5909   -0.3416 H   0  0  0  0  0  0
   -3.8965    1.2177    1.2779 H   0  0  0  0  0  0
   -2.4407    0.4014   -1.2932 H   0  0  0  0  0  0
   -3.5928   -0.6052   -0.4282 H   0  0  0  0  0  0
   -1.1561    0.5170    1.0019 H   0  0  0  0  0  0
   -2.1975   -0.8062    1.5075 H   0  0  0  0  0  0
   -0.4115   -0.8090   -0.9662 H   0  0  0  0  0  0
   -1.8652   -3.1810    0.3111 H   0  0  0  0  0  0
   -2.3419   -2.3408   -1.1462 H   0  0  0  0  0  0
   -1.1993   -4.3474   -1.7937 H   0  0  0  0  0  0
    0.2321   -3.9491   -0.8470 H   0  0  0  0  0  0
   -0.1950   -2.9683   -2.2594 H   0  0  0  0  0  0
    1.0274   -2.4752    2.6070 H   0  0  0  0  0  0
   -0.6977   -2.5576    2.3450 H   0  0  0  0  0  0
    0.3929   -3.5642    1.3648 H   0  0  0  0  0  0
    1.7194   -2.0103   -0.6908 H   0  0  0  0  0  0
    2.4555   -1.8467    0.8901 H   0  0  0  0  0  0
    1.3324    0.5164   -0.6955 H   0  0  0  0  0  0
    2.8936    0.3767    1.9255 H   0  0  0  0  0  0
    1.2261    0.9393    1.7474 H   0  0  0  0  0  0
    1.9893    2.8402    0.3371 H   0  0  0  0  0  0
    2.8511    2.8243    1.8791 H   0  0  0  0  0  0
    4.8549    1.5920   -1.4614 H   0  0  0  0  0  0
    3.1744    2.1078   -1.6386 H   0  0  0  0  0  0
    4.1920   -0.4230   -0.2298 H   0  0  0  0  0  0
    3.3421   -0.3794   -1.7827 H   0  0  0  0  0  0
    0.3815   -1.4033    0.9282 N   0  3  1  0  0  0
    0.3447   -0.5607    1.5138 H   0  0  0  0  0  0
  1  2  1  0  0  0
  1 17  1  0  0  0
  1 18  1  0  0  0
  1 19  1  0  0  0
  2  3  1  0  0  0
  2 20  1  0  0  0
  2 21  1  0  0  0
  3  4  1  0  0  0
  3 22  1  0  0  0
  3 23  1  0  0  0
  4  5  1  0  0  0
  4 24  1  0  0  0
  4 25  1  0  0  0
  5  6  1  0  0  0
  5 26  1  0  0  0
  5 27  1  0  0  0
  6  7  1  0  0  0
  6 28  1  0  0  0
  6 48  1  0  0  0
  7  8  1  0  0  0
  7 29  1  0  0  0
  7 30  1  0  0  0
  8 31  1  0  0  0
  8 32  1  0  0  0
  8 33  1  0  0  0
  9 34  1  0  0  0
  9 35  1  0  0  0
  9 36  1  0  0  0
  9 48  1  0  0  0
 10 11  1  0  0  0
 10 37  1  0  0  0
 10 38  1  0  0  0
 10 48  1  0  0  0
 11 12  1  0  0  0
 11 16  1  0  0  0
 11 39  1  0  0  0
 12 13  1  0  0  0
 12 40  1  0  0  0
 12 41  1  0  0  0
 13 14  1  0  0  0
 13 42  1  0  0  0
 13 43  1  0  0  0
 14 15  1  0  0  0
 15 16  1  0  0  0
 15 44  1  0  0  0
 15 45  1  0  0  0
 16 46  1  0  0  0
 16 47  1  0  0  0
 48 49  1  0  0  0
M  CHG  1  48   1
M  END
> <energy>
20.9717

> <chiral flag>
0

> <version>
0

> <i_ionizer_Ion_state_n>
1

> <i_ionizer_Tot_Q>
1

> <s_ionizer_Ion_centers>
48

> <s_ionizer_Ion_types>
N5

> <s_ionizer_Ion_ctrs_in>
9

> <r_ionizer_Ionization_penalty>
0.00148639

> <r_ionizer_Ionization_penalty_charging>
0.00148639

> <r_ionizer_Ionization_penalty_neutral>
0

$$$$
ZINC001258435631
                    3D
 Structure written by MMmdl.
 49 49  0  0  1  0            999 V2000
   -5.2621    1.3629   -0.6397 C   0  0  0  0  0  0
   -3.7691    1.6455   -0.7217 C   0  0  0  0  0  0
   -2.9137    0.3750   -0.6873 C   0  0  0  0  0  0
   -2.9066   -0.3228    0.6723 C   0  0  0  0  0  0
   -2.0286   -1.5889    0.7475 C   0  0  0  0  0  0
   -0.4930   -1.4727    0.4711 C   0  0  1  0  0  0
   -0.0935   -2.1742   -0.8601 C   0  0  0  0  0  0
   -0.7461   -1.7124   -2.1521 C   0  0  0  0  0  0
    0.1688    0.0992    2.2009 C   0  0  0  0  0  0
    1.1314    0.4059   -0.0235 C   0  0  0  0  0  0
    2.5646   -0.1160    0.2614 C   0  0  0  0  0  0
    3.2171    0.5852    1.4730 C   0  0  0  0  0  0
    4.6949    0.8833    1.2436 C   0  0  0  0  0  0
    4.9060    1.7270    0.1155 O   0  0  0  0  0  0
    4.0519    1.4753   -0.9988 C   0  0  0  0  0  0
    3.4426    0.0795   -0.9900 C   0  0  0  0  0  0
   -5.5829    0.7234   -1.4695 H   0  0  0  0  0  0
   -5.5265    0.8737    0.3011 H   0  0  0  0  0  0
   -5.8230    2.3004   -0.6990 H   0  0  0  0  0  0
   -3.4697    2.3213    0.0908 H   0  0  0  0  0  0
   -3.5677    2.1707   -1.6640 H   0  0  0  0  0  0
   -3.2790   -0.3169   -1.4532 H   0  0  0  0  0  0
   -1.8954    0.6629   -0.9613 H   0  0  0  0  0  0
   -2.6038    0.3918    1.4462 H   0  0  0  0  0  0
   -3.9296   -0.6217    0.9373 H   0  0  0  0  0  0
   -2.4699   -2.3546    0.0979 H   0  0  0  0  0  0
   -2.1482   -1.9809    1.7675 H   0  0  0  0  0  0
   -0.0187   -2.1366    1.2113 H   0  0  0  0  0  0
   -0.3204   -3.2453   -0.7463 H   0  0  0  0  0  0
    0.9946   -2.1387   -0.9851 H   0  0  0  0  0  0
   -0.5825   -0.6520   -2.3545 H   0  0  0  0  0  0
   -0.3221   -2.2758   -2.9929 H   0  0  0  0  0  0
   -1.8212   -1.9099   -2.1473 H   0  0  0  0  0  0
    0.4688    1.1302    2.4174 H   0  0  0  0  0  0
   -0.7716   -0.0658    2.7356 H   0  0  0  0  0  0
    0.9098   -0.5797    2.6326 H   0  0  0  0  0  0
    1.1275    1.4995    0.0957 H   0  0  0  0  0  0
    0.8925    0.2805   -1.0820 H   0  0  0  0  0  0
    2.5204   -1.1935    0.4587 H   0  0  0  0  0  0
    3.1052   -0.0233    2.3761 H   0  0  0  0  0  0
    2.7182    1.5437    1.6636 H   0  0  0  0  0  0
    5.2730   -0.0375    1.1119 H   0  0  0  0  0  0
    5.1131    1.3945    2.1187 H   0  0  0  0  0  0
    3.2612    2.2345   -0.9937 H   0  0  0  0  0  0
    4.6417    1.6304   -1.9062 H   0  0  0  0  0  0
    2.8770   -0.1003   -1.9144 H   0  0  0  0  0  0
    4.2514   -0.6607   -0.9696 H   0  0  0  0  0  0
   -0.0730   -0.0493    0.7625 N   0  3  1  0  0  0
   -0.8554    0.5633    0.5042 H   0  0  0  0  0  0
  1  2  1  0  0  0
  1 17  1  0  0  0
  1 18  1  0  0  0
  1 19  1  0  0  0
  2  3  1  0  0  0
  2 20  1  0  0  0
  2 21  1  0  0  0
  3  4  1  0  0  0
  3 22  1  0  0  0
  3 23  1  0  0  0
  4  5  1  0  0  0
  4 24  1  0  0  0
  4 25  1  0  0  0
  5  6  1  0  0  0
  5 26  1  0  0  0
  5 27  1  0  0  0
  6  7  1  0  0  0
  6 28  1  0  0  0
  6 48  1  0  0  0
  7  8  1  0  0  0
  7 29  1  0  0  0
  7 30  1  0  0  0
  8 31  1  0  0  0
  8 32  1  0  0  0
  8 33  1  0  0  0
  9 34  1  0  0  0
  9 35  1  0  0  0
  9 36  1  0  0  0
  9 48  1  0  0  0
 10 11  1  0  0  0
 10 37  1  0  0  0
 10 38  1  0  0  0
 10 48  1  0  0  0
 11 12  1  0  0  0
 11 16  1  0  0  0
 11 39  1  0  0  0
 12 13  1  0  0  0
 12 40  1  0  0  0
 12 41  1  0  0  0
 13 14  1  0  0  0
 13 42  1  0  0  0
 13 43  1  0  0  0
 14 15  1  0  0  0
 15 16  1  0  0  0
 15 44  1  0  0  0
 15 45  1  0  0  0
 16 46  1  0  0  0
 16 47  1  0  0  0
 48 49  1  0  0  0
M  CHG  1  48   1
M  END
> <energy>
40.5532

> <chiral flag>
0

> <version>
0

> <i_ionizer_Ion_state_n>
1

> <i_ionizer_Tot_Q>
1

> <s_ionizer_Ion_centers>
48

> <s_ionizer_Ion_types>
N5

> <s_ionizer_Ion_ctrs_in>
9

> <r_ionizer_Ionization_penalty>
0.00148639

> <r_ionizer_Ionization_penalty_charging>
0.00148639

> <r_ionizer_Ionization_penalty_neutral>
0

$$$$
ZINC001258435654
                    3D
 Structure written by MMmdl.
 42 42  0  0  1  0            999 V2000
   -1.0441    3.3067    1.0062 C   0  0  0  0  0  0
   -1.7781    3.0515   -0.3048 C   0  0  0  0  0  0
   -2.6874    1.8179   -0.2617 C   0  0  0  0  0  0
   -1.9932    0.4676   -0.0385 C   0  0  0  0  0  0
   -1.1754   -0.0409   -1.2376 C   0  0  0  0  0  0
   -0.1410   -1.1596   -0.9272 C   0  0  2  0  0  0
   -0.7810   -2.5470   -0.6607 C   0  0  0  0  0  0
   -1.7435   -2.6877    0.5059 C   0  0  0  0  0  0
    1.4343   -1.5678    1.0248 C   0  0  0  0  0  0
    2.4846   -0.6856    1.7074 C   0  0  1  0  0  0
    3.6630   -1.3513    1.7980 F   0  0  0  0  0  0
    2.6518    0.5344    0.8147 C   0  0  0  0  0  0
    1.9373    0.1502   -0.4818 C   0  0  1  0  0  0
    2.8985   -0.5825   -1.4342 C   0  0  0  0  0  0
   -1.7113    3.1906    1.8670 H   0  0  0  0  0  0
   -0.1996    2.6209    1.1322 H   0  0  0  0  0  0
   -0.6487    4.3266    1.0169 H   0  0  0  0  0  0
   -1.0601    2.9823   -1.1283 H   0  0  0  0  0  0
   -2.4070    3.9232   -0.5203 H   0  0  0  0  0  0
   -3.2717    1.7746   -1.1865 H   0  0  0  0  0  0
   -3.4100    1.9596    0.5570 H   0  0  0  0  0  0
   -1.3828    0.5172    0.8682 H   0  0  0  0  0  0
   -2.7924   -0.2521    0.1611 H   0  0  0  0  0  0
   -0.6362    0.7994   -1.6940 H   0  0  0  0  0  0
   -1.8701   -0.3996   -2.0082 H   0  0  0  0  0  0
    0.3930   -1.3215   -1.8680 H   0  0  0  0  0  0
    0.0256   -3.2816   -0.5301 H   0  0  0  0  0  0
   -1.3027   -2.8648   -1.5742 H   0  0  0  0  0  0
   -1.7987   -3.7371    0.8124 H   0  0  0  0  0  0
   -2.7544   -2.3917    0.2077 H   0  0  0  0  0  0
   -1.4510   -2.0977    1.3776 H   0  0  0  0  0  0
    0.7366   -1.9492    1.7728 H   0  0  0  0  0  0
    1.9170   -2.4250    0.5416 H   0  0  0  0  0  0
    2.1827   -0.3841    2.7172 H   0  0  0  0  0  0
    2.1453    1.3959    1.2710 H   0  0  0  0  0  0
    3.7029    0.8001    0.6598 H   0  0  0  0  0  0
    1.5716    1.0575   -0.9759 H   0  0  0  0  0  0
    3.2899   -1.5101   -1.0021 H   0  0  0  0  0  0
    3.7630    0.0500   -1.6616 H   0  0  0  0  0  0
    2.4227   -0.8363   -2.3866 H   0  0  0  0  0  0
    0.8208   -0.5705    0.1250 N   0  3  1  0  0  0
    0.2765    0.0863    0.6964 H   0  0  0  0  0  0
  1  2  1  0  0  0
  1 15  1  0  0  0
  1 16  1  0  0  0
  1 17  1  0  0  0
  2  3  1  0  0  0
  2 18  1  0  0  0
  2 19  1  0  0  0
  3  4  1  0  0  0
  3 20  1  0  0  0
  3 21  1  0  0  0
  4  5  1  0  0  0
  4 22  1  0  0  0
  4 23  1  0  0  0
  5  6  1  0  0  0
  5 24  1  0  0  0
  5 25  1  0  0  0
  6  7  1  0  0  0
  6 26  1  0  0  0
  6 41  1  0  0  0
  7  8  1  0  0  0
  7 27  1  0  0  0
  7 28  1  0  0  0
  8 29  1  0  0  0
  8 30  1  0  0  0
  8 31  1  0  0  0
  9 10  1  0  0  0
  9 32  1  0  0  0
  9 33  1  0  0  0
  9 41  1  0  0  0
 10 11  1  0  0  0
 10 12  1  0  0  0
 10 34  1  0  0  0
 12 13  1  0  0  0
 12 35  1  0  0  0
 12 36  1  0  0  0
 13 14  1  0  0  0
 13 37  1  0  0  0
 13 41  1  0  0  0
 14 38  1  0  0  0
 14 39  1  0  0  0
 14 40  1  0  0  0
 41 42  1  0  0  0
M  CHG  1  41   1
M  END
> <energy>
37.3562

> <chiral flag>
0

> <version>
0

> <i_ionizer_Ion_state_n>
1

> <i_ionizer_Tot_Q>
1

> <s_ionizer_Ion_centers>
41

> <s_ionizer_Ion_types>
N5

> <s_ionizer_Ion_ctrs_in>
9

> <r_ionizer_Ionization_penalty>
0.00148639

> <r_ionizer_Ionization_penalty_charging>
0.00148639

> <r_ionizer_Ionization_penalty_neutral>
0

$$$$
ZINC001258435658
                    3D
 Structure written by MMmdl.
 42 42  0  0  1  0            999 V2000
   -4.1998   -1.3245    1.4518 C   0  0  0  0  0  0
   -2.7994   -0.9109    1.0234 C   0  0  0  0  0  0
   -2.8366    0.3398    0.1418 C   0  0  0  0  0  0
   -1.4464    0.9234   -0.1310 C   0  0  0  0  0  0
   -0.6308    0.0910   -1.1263 C   0  0  0  0  0  0
    0.8614    0.4799   -1.3118 C   0  0  1  0  0  0
    1.1385    2.0011   -1.3632 C   0  0  0  0  0  0
    0.4720    2.6729   -2.5594 C   0  0  0  0  0  0
    2.0798   -1.6013   -0.8752 C   0  0  0  0  0  0
    2.3975   -2.4163    0.3715 C   0  0  1  0  0  0
    3.5641   -3.0878    0.2332 F   0  0  0  0  0  0
    2.5058   -1.3951    1.4768 C   0  0  0  0  0  0
    1.5586   -0.2832    1.0233 C   0  0  1  0  0  0
    1.8701    0.9991    1.7868 C   0  0  0  0  0  0
   -4.1599   -2.2376    2.0547 H   0  0  0  0  0  0
   -4.6673   -0.5393    2.0570 H   0  0  0  0  0  0
   -4.8366   -1.5128    0.5802 H   0  0  0  0  0  0
   -2.1976   -0.7203    1.9198 H   0  0  0  0  0  0
   -2.3313   -1.7428    0.4871 H   0  0  0  0  0  0
   -3.3473    0.1138   -0.8031 H   0  0  0  0  0  0
   -3.4358    1.1096    0.6444 H   0  0  0  0  0  0
   -1.5880    1.9293   -0.5413 H   0  0  0  0  0  0
   -0.9194    1.0494    0.8166 H   0  0  0  0  0  0
   -0.6948   -0.9718   -0.8674 H   0  0  0  0  0  0
   -1.1228    0.1687   -2.1053 H   0  0  0  0  0  0
    1.1219    0.1367   -2.3242 H   0  0  0  0  0  0
    0.8161    2.5055   -0.4488 H   0  0  0  0  0  0
    2.2210    2.1687   -1.4468 H   0  0  0  0  0  0
    0.7608    3.7272   -2.6124 H   0  0  0  0  0  0
   -0.6175    2.6286   -2.4972 H   0  0  0  0  0  0
    0.7795    2.1961   -3.4960 H   0  0  0  0  0  0
    1.2131   -2.0496   -1.3764 H   0  0  0  0  0  0
    2.9169   -1.6057   -1.5828 H   0  0  0  0  0  0
    1.5988   -3.1377    0.5801 H   0  0  0  0  0  0
    2.2098   -1.8175    2.4414 H   0  0  0  0  0  0
    3.5423   -1.0471    1.5735 H   0  0  0  0  0  0
    0.5333   -0.6074    1.2364 H   0  0  0  0  0  0
    1.1472    1.7894    1.5766 H   0  0  0  0  0  0
    2.8691    1.3795    1.5461 H   0  0  0  0  0  0
    1.8391    0.8148    2.8662 H   0  0  0  0  0  0
    1.8989   -0.2256   -0.4344 N   0  3  2  0  0  0
    2.7864    0.2803   -0.5366 H   0  0  0  0  0  0
  1  2  1  0  0  0
  1 15  1  0  0  0
  1 16  1  0  0  0
  1 17  1  0  0  0
  2  3  1  0  0  0
  2 18  1  0  0  0
  2 19  1  0  0  0
  3  4  1  0  0  0
  3 20  1  0  0  0
  3 21  1  0  0  0
  4  5  1  0  0  0
  4 22  1  0  0  0
  4 23  1  0  0  0
  5  6  1  0  0  0
  5 24  1  0  0  0
  5 25  1  0  0  0
  6  7  1  0  0  0
  6 26  1  0  0  0
  6 41  1  0  0  0
  7  8  1  0  0  0
  7 27  1  0  0  0
  7 28  1  0  0  0
  8 29  1  0  0  0
  8 30  1  0  0  0
  8 31  1  0  0  0
  9 10  1  0  0  0
  9 32  1  0  0  0
  9 33  1  0  0  0
  9 41  1  0  0  0
 10 11  1  0  0  0
 10 12  1  0  0  0
 10 34  1  0  0  0
 12 13  1  0  0  0
 12 35  1  0  0  0
 12 36  1  0  0  0
 13 14  1  0  0  0
 13 37  1  0  0  0
 13 41  1  0  0  0
 14 38  1  0  0  0
 14 39  1  0  0  0
 14 40  1  0  0  0
 41 42  1  0  0  0
M  CHG  1  41   1
M  END
> <energy>
33.4274

> <chiral flag>
0

> <version>
0

> <i_ionizer_Ion_state_n>
1

> <i_ionizer_Tot_Q>
1

> <s_ionizer_Ion_centers>
41

> <s_ionizer_Ion_types>
N5

> <s_ionizer_Ion_ctrs_in>
9

> <r_ionizer_Ionization_penalty>
0.00148639

> <r_ionizer_Ionization_penalty_charging>
0.00148639

> <r_ionizer_Ionization_penalty_neutral>
0

$$$$
ZINC001258435662
                    3D
 Structure written by MMmdl.
 42 42  0  0  1  0            999 V2000
   -4.0618    1.7978   -1.1047 C   0  0  0  0  0  0
   -3.2453    1.3666    0.1039 C   0  0  0  0  0  0
   -2.3850    0.1432   -0.2117 C   0  0  0  0  0  0
   -1.6087   -0.3160    1.0213 C   0  0  0  0  0  0
   -0.7920   -1.5935    0.8096 C   0  0  0  0  0  0
    0.5312   -1.5494   -0.0075 C   0  0  1  0  0  0
    0.2814   -1.5429   -1.5341 C   0  0  0  0  0  0
    1.4668   -2.0882   -2.3253 C   0  0  0  0  0  0
    1.9646   -0.7208    1.8317 C   0  0  0  0  0  0
    2.6774    0.5832    2.1280 C   0  0  2  0  0  0
    2.6579    0.8646    3.4511 F   0  0  0  0  0  0
    1.8354    1.5819    1.3657 C   0  0  0  0  0  0
    1.4311    0.8262    0.0938 C   0  0  1  0  0  0
    2.3619    1.2078   -1.0600 C   0  0  0  0  0  0
   -4.6596    2.6819   -0.8611 H   0  0  0  0  0  0
   -4.7433    1.0006   -1.4198 H   0  0  0  0  0  0
   -3.4120    2.0480   -1.9504 H   0  0  0  0  0  0
   -3.9252    1.1415    0.9342 H   0  0  0  0  0  0
   -2.6061    2.1980    0.4228 H   0  0  0  0  0  0
   -3.0253   -0.6749   -0.5631 H   0  0  0  0  0  0
   -1.7034    0.3954   -1.0270 H   0  0  0  0  0  0
   -0.9840    0.4897    1.4151 H   0  0  0  0  0  0
   -2.3384   -0.5294    1.8151 H   0  0  0  0  0  0
   -0.5557   -1.9897    1.8067 H   0  0  0  0  0  0
   -1.4488   -2.3568    0.3706 H   0  0  0  0  0  0
    0.9717   -2.5412    0.1826 H   0  0  0  0  0  0
    0.0450   -0.5396   -1.8960 H   0  0  0  0  0  0
   -0.5879   -2.1696   -1.7695 H   0  0  0  0  0  0
    1.6292   -3.1457   -2.0943 H   0  0  0  0  0  0
    1.2742   -2.0051   -3.3990 H   0  0  0  0  0  0
    2.3934   -1.5519   -2.1064 H   0  0  0  0  0  0
    2.6209   -1.5799    1.9990 H   0  0  0  0  0  0
    1.1107   -0.8153    2.5106 H   0  0  0  0  0  0
    3.7156    0.5744    1.7747 H   0  0  0  0  0  0
    0.9491    1.8385    1.9588 H   0  0  0  0  0  0
    2.3798    2.5129    1.1822 H   0  0  0  0  0  0
    0.4138    1.1105   -0.1837 H   0  0  0  0  0  0
    2.0443    0.7513   -2.0007 H   0  0  0  0  0  0
    3.3979    0.9063   -0.8684 H   0  0  0  0  0  0
    2.3534    2.2920   -1.2151 H   0  0  0  0  0  0
    1.6744   -0.6182    0.3983 N   0  3  2  0  0  0
    2.5070   -0.9148   -0.1243 H   0  0  0  0  0  0
  1  2  1  0  0  0
  1 15  1  0  0  0
  1 16  1  0  0  0
  1 17  1  0  0  0
  2  3  1  0  0  0
  2 18  1  0  0  0
  2 19  1  0  0  0
  3  4  1  0  0  0
  3 20  1  0  0  0
  3 21  1  0  0  0
  4  5  1  0  0  0
  4 22  1  0  0  0
  4 23  1  0  0  0
  5  6  1  0  0  0
  5 24  1  0  0  0
  5 25  1  0  0  0
  6  7  1  0  0  0
  6 26  1  0  0  0
  6 41  1  0  0  0
  7  8  1  0  0  0
  7 27  1  0  0  0
  7 28  1  0  0  0
  8 29  1  0  0  0
  8 30  1  0  0  0
  8 31  1  0  0  0
  9 10  1  0  0  0
  9 32  1  0  0  0
  9 33  1  0  0  0
  9 41  1  0  0  0
 10 11  1  0  0  0
 10 12  1  0  0  0
 10 34  1  0  0  0
 12 13  1  0  0  0
 12 35  1  0  0  0
 12 36  1  0  0  0
 13 14  1  0  0  0
 13 37  1  0  0  0
 13 41  1  0  0  0
 14 38  1  0  0  0
 14 39  1  0  0  0
 14 40  1  0  0  0
 41 42  1  0  0  0
M  CHG  1  41   1
M  END
> <energy>
33.4759

> <chiral flag>
0

> <version>
0

> <i_ionizer_Ion_state_n>
1

> <i_ionizer_Tot_Q>
1

> <s_ionizer_Ion_centers>
41

> <s_ionizer_Ion_types>
N5

> <s_ionizer_Ion_ctrs_in>
9

> <r_ionizer_Ionization_penalty>
0.00148639

> <r_ionizer_Ionization_penalty_charging>
0.00148639

> <r_ionizer_Ionization_penalty_neutral>
0

$$$$
ZINC001258435663
                    3D
 Structure written by MMmdl.
 42 42  0  0  1  0            999 V2000
   -3.9949    1.2554   -1.6873 C   0  0  0  0  0  0
   -2.8275    1.5536   -0.7558 C   0  0  0  0  0  0
   -2.7666    0.5444    0.3918 C   0  0  0  0  0  0
   -1.5674    0.8035    1.3082 C   0  0  0  0  0  0
   -0.6424   -0.4144    1.4682 C   0  0  0  0  0  0
    0.0758   -0.8397    0.1564 C   0  0  2  0  0  0
   -0.1449   -2.3524   -0.1090 C   0  0  0  0  0  0
    0.3943   -2.7946   -1.4634 C   0  0  0  0  0  0
    2.3486   -1.1216    1.1366 C   0  0  0  0  0  0
    3.3920   -0.0801    1.5228 C   0  0  2  0  0  0
    3.0349    0.4921    2.7066 F   0  0  0  0  0  0
    3.2978    0.9638    0.4384 C   0  0  0  0  0  0
    1.8157    0.9340    0.0732 C   0  0  1  0  0  0
    1.5926    1.5828   -1.2907 C   0  0  0  0  0  0
   -3.8825    0.2656   -2.1457 H   0  0  0  0  0  0
   -4.0405    1.9998   -2.4897 H   0  0  0  0  0  0
   -4.9460    1.2803   -1.1423 H   0  0  0  0  0  0
   -2.9293    2.5697   -0.3531 H   0  0  0  0  0  0
   -1.8928    1.5221   -1.3297 H   0  0  0  0  0  0
   -2.7373   -0.4684   -0.0164 H   0  0  0  0  0  0
   -3.6871    0.6160    0.9835 H   0  0  0  0  0  0
   -0.9892    1.6686    0.9650 H   0  0  0  0  0  0
   -1.9452    1.0725    2.3039 H   0  0  0  0  0  0
    0.0878   -0.1557    2.2439 H   0  0  0  0  0  0
   -1.2251   -1.2487    1.8772 H   0  0  0  0  0  0
   -0.4121   -0.3383   -0.6846 H   0  0  0  0  0  0
    0.3080   -2.9564    0.6853 H   0  0  0  0  0  0
   -1.2217   -2.5735   -0.0949 H   0  0  0  0  0  0
    0.1533   -3.8464   -1.6488 H   0  0  0  0  0  0
   -0.0499   -2.2004   -2.2700 H   0  0  0  0  0  0
    1.4818   -2.6798   -1.5234 H   0  0  0  0  0  0
    2.8323   -2.0093    0.7125 H   0  0  0  0  0  0
    1.7925   -1.4428    2.0243 H   0  0  0  0  0  0
    4.3962   -0.4974    1.6347 H   0  0  0  0  0  0
    3.9245    0.6759   -0.4139 H   0  0  0  0  0  0
    3.6054    1.9568    0.7881 H   0  0  0  0  0  0
    1.2513    1.4746    0.8401 H   0  0  0  0  0  0
    2.2660    1.1803   -2.0541 H   0  0  0  0  0  0
    0.5700    1.4498   -1.6492 H   0  0  0  0  0  0
    1.7715    2.6616   -1.2292 H   0  0  0  0  0  0
    1.5585   -0.5160    0.0427 N   0  3  2  0  0  0
    1.8934   -0.8912   -0.8524 H   0  0  0  0  0  0
  1  2  1  0  0  0
  1 15  1  0  0  0
  1 16  1  0  0  0
  1 17  1  0  0  0
  2  3  1  0  0  0
  2 18  1  0  0  0
  2 19  1  0  0  0
  3  4  1  0  0  0
  3 20  1  0  0  0
  3 21  1  0  0  0
  4  5  1  0  0  0
  4 22  1  0  0  0
  4 23  1  0  0  0
  5  6  1  0  0  0
  5 24  1  0  0  0
  5 25  1  0  0  0
  6  7  1  0  0  0
  6 26  1  0  0  0
  6 41  1  0  0  0
  7  8  1  0  0  0
  7 27  1  0  0  0
  7 28  1  0  0  0
  8 29  1  0  0  0
  8 30  1  0  0  0
  8 31  1  0  0  0
  9 10  1  0  0  0
  9 32  1  0  0  0
  9 33  1  0  0  0
  9 41  1  0  0  0
 10 11  1  0  0  0
 10 12  1  0  0  0
 10 34  1  0  0  0
 12 13  1  0  0  0
 12 35  1  0  0  0
 12 36  1  0  0  0
 13 14  1  0  0  0
 13 37  1  0  0  0
 13 41  1  0  0  0
 14 38  1  0  0  0
 14 39  1  0  0  0
 14 40  1  0  0  0
 41 42  1  0  0  0
M  CHG  1  41   1
M  END
> <energy>
32.8774

> <chiral flag>
0

> <version>
0

> <i_ionizer_Ion_state_n>
1

> <i_ionizer_Tot_Q>
1

> <s_ionizer_Ion_centers>
41

> <s_ionizer_Ion_types>
N5

> <s_ionizer_Ion_ctrs_in>
9

> <r_ionizer_Ionization_penalty>
0.00148639

> <r_ionizer_Ionization_penalty_charging>
0.00148639

> <r_ionizer_Ionization_penalty_neutral>
0

$$$$
ZINC001258435674
                    3D
 Structure written by MMmdl.
 39 39  0  0  1  0            999 V2000
   -3.6381    1.9921   -0.7252 C   0  0  0  0  0  0
   -3.1595    0.5502   -0.8099 C   0  0  0  0  0  0
   -2.1024    0.2513    0.2556 C   0  0  0  0  0  0
   -1.5487   -1.1717    0.1045 C   0  0  0  0  0  0
   -0.5204   -1.5583    1.1808 C   0  0  0  0  0  0
    0.9774   -1.2219    0.9370 C   0  0  1  0  0  0
    1.7329   -2.2679    0.0827 C   0  0  0  0  0  0
    1.1565   -2.6178   -1.2786 C   0  0  0  0  0  0
    1.9878    0.9561    1.5070 C   0  0  0  0  0  0
    1.9791    2.3341    0.8666 C   0  0  0  0  0  0
    2.0451    2.0233   -0.6144 C   0  0  0  0  0  0
    3.3209    2.1398   -1.0592 F   0  0  0  0  0  0
    1.2907    2.8859   -1.3288 F   0  0  0  0  0  0
    1.5680    0.5760   -0.7548 C   0  0  0  0  0  0
   -2.8161    2.6887   -0.9163 H   0  0  0  0  0  0
   -4.0556    2.2097    0.2629 H   0  0  0  0  0  0
   -4.4174    2.1808   -1.4699 H   0  0  0  0  0  0
   -2.7500    0.3688   -1.8110 H   0  0  0  0  0  0
   -4.0168   -0.1225   -0.6834 H   0  0  0  0  0  0
   -1.3012    0.9916    0.1774 H   0  0  0  0  0  0
   -2.5536    0.3665    1.2491 H   0  0  0  0  0  0
   -1.1393   -1.3071   -0.8994 H   0  0  0  0  0  0
   -2.3957   -1.8657    0.1918 H   0  0  0  0  0  0
   -0.6023   -2.6388    1.3570 H   0  0  0  0  0  0
   -0.8273   -1.0881    2.1256 H   0  0  0  0  0  0
    1.4261   -1.3560    1.9340 H   0  0  0  0  0  0
    1.7979   -3.2000    0.6573 H   0  0  0  0  0  0
    2.7751   -1.9475   -0.0354 H   0  0  0  0  0  0
    0.2414   -3.2040   -1.1726 H   0  0  0  0  0  0
    1.8686   -3.2350   -1.8347 H   0  0  0  0  0  0
    0.9386   -1.7400   -1.8869 H   0  0  0  0  0  0
    1.5867    0.9953    2.5263 H   0  0  0  0  0  0
    3.0049    0.5463    1.5428 H   0  0  0  0  0  0
    2.8190    2.9486    1.2043 H   0  0  0  0  0  0
    1.0452    2.8606    1.0972 H   0  0  0  0  0  0
    2.4106   -0.0231   -1.1127 H   0  0  0  0  0  0
    0.7388    0.5077   -1.4625 H   0  0  0  0  0  0
    1.0818    0.2698    0.6085 N   0  3  1  0  0  0
    0.1420    0.6699    0.7128 H   0  0  0  0  0  0
  1  2  1  0  0  0
  1 15  1  0  0  0
  1 16  1  0  0  0
  1 17  1  0  0  0
  2  3  1  0  0  0
  2 18  1  0  0  0
  2 19  1  0  0  0
  3  4  1  0  0  0
  3 20  1  0  0  0
  3 21  1  0  0  0
  4  5  1  0  0  0
  4 22  1  0  0  0
  4 23  1  0  0  0
  5  6  1  0  0  0
  5 24  1  0  0  0
  5 25  1  0  0  0
  6  7  1  0  0  0
  6 26  1  0  0  0
  6 38  1  0  0  0
  7  8  1  0  0  0
  7 27  1  0  0  0
  7 28  1  0  0  0
  8 29  1  0  0  0
  8 30  1  0  0  0
  8 31  1  0  0  0
  9 10  1  0  0  0
  9 32  1  0  0  0
  9 33  1  0  0  0
  9 38  1  0  0  0
 10 11  1  0  0  0
 10 34  1  0  0  0
 10 35  1  0  0  0
 11 12  1  0  0  0
 11 13  1  0  0  0
 11 14  1  0  0  0
 14 36  1  0  0  0
 14 37  1  0  0  0
 14 38  1  0  0  0
 38 39  1  0  0  0
M  CHG  1  38   1
M  END
> <energy>
53.7229

> <chiral flag>
0

> <version>
0

> <i_ionizer_Ion_state_n>
1

> <i_ionizer_Tot_Q>
1

> <s_ionizer_Ion_centers>
38

> <s_ionizer_Ion_types>
N5

> <s_ionizer_Ion_ctrs_in>
9

> <r_ionizer_Ionization_penalty>
0.00148639

> <r_ionizer_Ionization_penalty_charging>
0.00148639

> <r_ionizer_Ionization_penalty_neutral>
0

$$$$
ZINC001258435676
                    3D
 Structure written by MMmdl.
 39 39  0  0  1  0            999 V2000
   -2.9418    2.8741   -0.5948 C   0  0  0  0  0  0
   -2.7466    2.3237    0.8095 C   0  0  0  0  0  0
   -3.0323    0.8216    0.9263 C   0  0  0  0  0  0
   -2.1747   -0.0976    0.0459 C   0  0  0  0  0  0
   -0.6893   -0.0737    0.4273 C   0  0  0  0  0  0
    0.1955   -0.9687   -0.4826 C   0  0  2  0  0  0
   -0.0754   -2.4724   -0.2227 C   0  0  0  0  0  0
    0.7235   -3.4080   -1.1270 C   0  0  0  0  0  0
    2.2071   -0.7127    0.9863 C   0  0  0  0  0  0
    3.5853   -0.1133    0.7673 C   0  0  0  0  0  0
    3.2815    1.0341   -0.1654 C   0  0  0  0  0  0
    4.3461    1.3519   -0.9281 F   0  0  0  0  0  0
    2.9530    2.1349    0.5570 F   0  0  0  0  0  0
    2.0798    0.5733   -0.9893 C   0  0  0  0  0  0
   -3.9333    2.6172   -0.9820 H   0  0  0  0  0  0
   -2.1872    2.4865   -1.2851 H   0  0  0  0  0  0
   -2.8519    3.9655   -0.5855 H   0  0  0  0  0  0
   -3.4264    2.8545    1.4882 H   0  0  0  0  0  0
   -1.7324    2.5523    1.1542 H   0  0  0  0  0  0
   -2.9088    0.5270    1.9760 H   0  0  0  0  0  0
   -4.0870    0.6476    0.6793 H   0  0  0  0  0  0
   -2.2973    0.1699   -1.0100 H   0  0  0  0  0  0
   -2.5659   -1.1147    0.1578 H   0  0  0  0  0  0
   -0.3396    0.9608    0.3700 H   0  0  0  0  0  0
   -0.5888   -0.3851    1.4756 H   0  0  0  0  0  0
   -0.0885   -0.7766   -1.5268 H   0  0  0  0  0  0
    0.1338   -2.7249    0.8230 H   0  0  0  0  0  0
   -1.1362   -2.6898   -0.3860 H   0  0  0  0  0  0
    0.5354   -3.1893   -2.1833 H   0  0  0  0  0  0
    0.4323   -4.4478   -0.9431 H   0  0  0  0  0  0
    1.7999   -3.3277   -0.9416 H   0  0  0  0  0  0
    2.2797   -1.7280    1.3875 H   0  0  0  0  0  0
    1.6482   -0.0925    1.6956 H   0  0  0  0  0  0
    4.0375    0.2220    1.7055 H   0  0  0  0  0  0
    4.2588   -0.8364    0.2923 H   0  0  0  0  0  0
    1.3101    1.3510   -0.9810 H   0  0  0  0  0  0
    2.3615    0.3792   -2.0290 H   0  0  0  0  0  0
    1.6996   -0.7183   -0.3953 N   0  3  2  0  0  0
    2.1694   -1.4708   -0.9123 H   0  0  0  0  0  0
  1  2  1  0  0  0
  1 15  1  0  0  0
  1 16  1  0  0  0
  1 17  1  0  0  0
  2  3  1  0  0  0
  2 18  1  0  0  0
  2 19  1  0  0  0
  3  4  1  0  0  0
  3 20  1  0  0  0
  3 21  1  0  0  0
  4  5  1  0  0  0
  4 22  1  0  0  0
  4 23  1  0  0  0
  5  6  1  0  0  0
  5 24  1  0  0  0
  5 25  1  0  0  0
  6  7  1  0  0  0
  6 26  1  0  0  0
  6 38  1  0  0  0
  7  8  1  0  0  0
  7 27  1  0  0  0
  7 28  1  0  0  0
  8 29  1  0  0  0
  8 30  1  0  0  0
  8 31  1  0  0  0
  9 10  1  0  0  0
  9 32  1  0  0  0
  9 33  1  0  0  0
  9 38  1  0  0  0
 10 11  1  0  0  0
 10 34  1  0  0  0
 10 35  1  0  0  0
 11 12  1  0  0  0
 11 13  1  0  0  0
 11 14  1  0  0  0
 14 36  1  0  0  0
 14 37  1  0  0  0
 14 38  1  0  0  0
 38 39  1  0  0  0
M  CHG  1  38   1
M  END
> <energy>
44.3476

> <chiral flag>
0

> <version>
0

> <i_ionizer_Ion_state_n>
1

> <i_ionizer_Tot_Q>
1

> <s_ionizer_Ion_centers>
38

> <s_ionizer_Ion_types>
N5

> <s_ionizer_Ion_ctrs_in>
9

> <r_ionizer_Ionization_penalty>
0.00148639

> <r_ionizer_Ionization_penalty_charging>
0.00148639

> <r_ionizer_Ionization_penalty_neutral>
0

$$$$
ZINC001258435691
                    3D
 Structure written by MMmdl.
 49 49  0  0  1  0            999 V2000
   -1.7744   -3.9933   -2.3318 C   0  0  0  0  0  0
   -1.5889   -2.8151   -1.3879 C   0  0  0  0  0  0
   -2.0532   -3.1542    0.0274 C   0  0  0  0  0  0
   -1.7699   -2.0516    1.0558 C   0  0  0  0  0  0
   -2.5281   -0.7395    0.7922 C   0  0  0  0  0  0
   -1.6798    0.3607    0.1118 C   0  0  1  0  0  0
   -2.5579    1.5674   -0.2900 C   0  0  0  0  0  0
   -3.5064    1.2657   -1.4435 C   0  0  0  0  0  0
    0.5439    1.3809    0.4374 C   0  0  1  0  0  0
    1.2244    2.3442    1.4239 C   0  0  0  0  0  0
    2.4948    2.9487    0.8205 C   0  0  0  0  0  0
    3.4871    1.8740    0.3645 C   0  0  1  0  0  0
    3.9711    1.2140    1.5382 O   0  0  0  0  0  0
    5.2203    0.5640    1.3501 C   0  0  0  0  0  0
    2.8058    0.8850   -0.5886 C   0  0  0  0  0  0
    1.5309    0.2834    0.0092 C   0  0  0  0  0  0
   -1.4340   -3.7294   -3.3381 H   0  0  0  0  0  0
   -1.1989   -4.8618   -1.9956 H   0  0  0  0  0  0
   -2.8283   -4.2820   -2.3951 H   0  0  0  0  0  0
   -0.5321   -2.5264   -1.3745 H   0  0  0  0  0  0
   -2.1589   -1.9655   -1.7780 H   0  0  0  0  0  0
   -1.5490   -4.0692    0.3632 H   0  0  0  0  0  0
   -3.1276   -3.3771    0.0193 H   0  0  0  0  0  0
   -2.0896   -2.4342    2.0344 H   0  0  0  0  0  0
   -0.6895   -1.8858    1.1296 H   0  0  0  0  0  0
   -3.4272   -0.9570    0.2058 H   0  0  0  0  0  0
   -2.8904   -0.3544    1.7562 H   0  0  0  0  0  0
   -1.2147   -0.0578   -0.7864 H   0  0  0  0  0  0
   -1.9260    2.4081   -0.5984 H   0  0  0  0  0  0
   -3.1399    1.9174    0.5715 H   0  0  0  0  0  0
   -2.9623    0.8638   -2.3038 H   0  0  0  0  0  0
   -4.2808    0.5495   -1.1581 H   0  0  0  0  0  0
   -4.0109    2.1837   -1.7618 H   0  0  0  0  0  0
    0.2591    1.9677   -0.4456 H   0  0  0  0  0  0
    0.5379    3.1580    1.6886 H   0  0  0  0  0  0
    1.4720    1.8226    2.3578 H   0  0  0  0  0  0
    2.9653    3.5951    1.5712 H   0  0  0  0  0  0
    2.2232    3.5825   -0.0328 H   0  0  0  0  0  0
    4.3236    2.3693   -0.1440 H   0  0  0  0  0  0
    5.5168    0.1141    2.3014 H   0  0  0  0  0  0
    5.9872    1.2871    1.0555 H   0  0  0  0  0  0
    5.1448   -0.2307    0.6036 H   0  0  0  0  0  0
    3.4857    0.0683   -0.8517 H   0  0  0  0  0  0
    2.5526    1.4024   -1.5224 H   0  0  0  0  0  0
    1.0736   -0.3762   -0.7373 H   0  0  0  0  0  0
    1.7929   -0.3478    0.8687 H   0  0  0  0  0  0
   -0.6464    0.7870    1.1003 N   0  3  0  0  0  0
   -1.0580    1.4852    1.7306 H   0  0  0  0  0  0
   -0.3493   -0.0319    1.6438 H   0  0  0  0  0  0
  1  2  1  0  0  0
  1 17  1  0  0  0
  1 18  1  0  0  0
  1 19  1  0  0  0
  2  3  1  0  0  0
  2 20  1  0  0  0
  2 21  1  0  0  0
  3  4  1  0  0  0
  3 22  1  0  0  0
  3 23  1  0  0  0
  4  5  1  0  0  0
  4 24  1  0  0  0
  4 25  1  0  0  0
  5  6  1  0  0  0
  5 26  1  0  0  0
  5 27  1  0  0  0
  6  7  1  0  0  0
  6 28  1  0  0  0
  6 47  1  0  0  0
  7  8  1  0  0  0
  7 29  1  0  0  0
  7 30  1  0  0  0
  8 31  1  0  0  0
  8 32  1  0  0  0
  8 33  1  0  0  0
  9 10  1  0  0  0
  9 16  1  0  0  0
  9 34  1  0  0  0
  9 47  1  0  0  0
 10 11  1  0  0  0
 10 35  1  0  0  0
 10 36  1  0  0  0
 11 12  1  0  0  0
 11 37  1  0  0  0
 11 38  1  0  0  0
 12 13  1  0  0  0
 12 15  1  0  0  0
 12 39  1  0  0  0
 13 14  1  0  0  0
 14 40  1  0  0  0
 14 41  1  0  0  0
 14 42  1  0  0  0
 15 16  1  0  0  0
 15 43  1  0  0  0
 15 44  1  0  0  0
 16 45  1  0  0  0
 16 46  1  0  0  0
 47 48  1  0  0  0
 47 49  1  0  0  0
M  CHG  1  47   1
M  END
> <energy>
12.9039

> <chiral flag>
0

> <version>
0

> <i_ionizer_Ion_state_n>
1

> <i_ionizer_Tot_Q>
1

> <s_ionizer_Ion_centers>
47

> <s_ionizer_Ion_types>
N5

> <s_ionizer_Ion_ctrs_in>
9

> <r_ionizer_Ionization_penalty>
0.000148807

> <r_ionizer_Ionization_penalty_charging>
0.000148807

> <r_ionizer_Ionization_penalty_neutral>
0

$$$$
ZINC001258435692
                    3D
 Structure written by MMmdl.
 49 49  0  0  1  0            999 V2000
   -5.4232   -0.3641   -0.4780 C   0  0  0  0  0  0
   -4.2371    0.5175   -0.1182 C   0  0  0  0  0  0
   -2.8824   -0.1717   -0.3066 C   0  0  0  0  0  0
   -2.6171   -1.2756    0.7246 C   0  0  0  0  0  0
   -1.2896   -2.0136    0.4897 C   0  0  0  0  0  0
   -0.0164   -1.4345    1.1479 C   0  0  2  0  0  0
   -0.0079   -1.5132    2.6902 C   0  0  0  0  0  0
   -0.0777   -2.9324    3.2359 C   0  0  0  0  0  0
    1.5578    0.2690    0.3213 C   0  0  1  0  0  0
    1.7405   -0.0898   -1.1630 C   0  0  0  0  0  0
    3.1135    0.3300   -1.6928 C   0  0  0  0  0  0
    3.3950    1.8182   -1.4526 C   0  0  1  0  0  0
    2.4828    2.6583   -2.1676 O   0  0  0  0  0  0
    2.7625    2.7570   -3.5562 C   0  0  0  0  0  0
    3.2345    2.1437    0.0352 C   0  0  0  0  0  0
    1.8461    1.7605    0.5547 C   0  0  0  0  0  0
   -5.5414   -1.1847    0.2340 H   0  0  0  0  0  0
   -6.3455    0.2249   -0.4592 H   0  0  0  0  0  0
   -5.3127   -0.7876   -1.4810 H   0  0  0  0  0  0
   -4.3391    0.8670    0.9147 H   0  0  0  0  0  0
   -4.2610    1.4086   -0.7583 H   0  0  0  0  0  0
   -2.8227   -0.5843   -1.3215 H   0  0  0  0  0  0
   -2.1067    0.5979   -0.2338 H   0  0  0  0  0  0
   -3.4184   -2.0198    0.6469 H   0  0  0  0  0  0
   -2.6706   -0.8704    1.7395 H   0  0  0  0  0  0
   -1.1147   -2.1020   -0.5909 H   0  0  0  0  0  0
   -1.4149   -3.0455    0.8393 H   0  0  0  0  0  0
    0.8129   -2.0584    0.7865 H   0  0  0  0  0  0
    0.9220   -1.0654    3.0638 H   0  0  0  0  0  0
   -0.8237   -0.9221    3.1226 H   0  0  0  0  0  0
    0.6713   -3.5720    2.7588 H   0  0  0  0  0  0
    0.1205   -2.9280    4.3128 H   0  0  0  0  0  0
   -1.0660   -3.3731    3.0821 H   0  0  0  0  0  0
    2.2766   -0.2981    0.9290 H   0  0  0  0  0  0
    0.9624    0.3964   -1.7651 H   0  0  0  0  0  0
    1.6214   -1.1706   -1.3094 H   0  0  0  0  0  0
    3.1608    0.0926   -2.7618 H   0  0  0  0  0  0
    3.8902   -0.2696   -1.2000 H   0  0  0  0  0  0
    4.4216    2.0588   -1.7566 H   0  0  0  0  0  0
    2.5878    1.8021   -4.0591 H   0  0  0  0  0  0
    3.7916    3.0932   -3.7209 H   0  0  0  0  0  0
    2.0835    3.4975   -3.9882 H   0  0  0  0  0  0
    3.3852    3.2174    0.1962 H   0  0  0  0  0  0
    4.0016    1.6149    0.6136 H   0  0  0  0  0  0
    1.7942    1.9891    1.6261 H   0  0  0  0  0  0
    1.0840    2.3814    0.0654 H   0  0  0  0  0  0
    0.1607   -0.0189    0.7341 N   0  3  0  0  0  0
   -0.4653    0.1763   -0.0559 H   0  0  0  0  0  0
   -0.0840    0.5903    1.5235 H   0  0  0  0  0  0
  1  2  1  0  0  0
  1 17  1  0  0  0
  1 18  1  0  0  0
  1 19  1  0  0  0
  2  3  1  0  0  0
  2 20  1  0  0  0
  2 21  1  0  0  0
  3  4  1  0  0  0
  3 22  1  0  0  0
  3 23  1  0  0  0
  4  5  1  0  0  0
  4 24  1  0  0  0
  4 25  1  0  0  0
  5  6  1  0  0  0
  5 26  1  0  0  0
  5 27  1  0  0  0
  6  7  1  0  0  0
  6 28  1  0  0  0
  6 47  1  0  0  0
  7  8  1  0  0  0
  7 29  1  0  0  0
  7 30  1  0  0  0
  8 31  1  0  0  0
  8 32  1  0  0  0
  8 33  1  0  0  0
  9 10  1  0  0  0
  9 16  1  0  0  0
  9 34  1  0  0  0
  9 47  1  0  0  0
 10 11  1  0  0  0
 10 35  1  0  0  0
 10 36  1  0  0  0
 11 12  1  0  0  0
 11 37  1  0  0  0
 11 38  1  0  0  0
 12 13  1  0  0  0
 12 15  1  0  0  0
 12 39  1  0  0  0
 13 14  1  0  0  0
 14 40  1  0  0  0
 14 41  1  0  0  0
 14 42  1  0  0  0
 15 16  1  0  0  0
 15 43  1  0  0  0
 15 44  1  0  0  0
 16 45  1  0  0  0
 16 46  1  0  0  0
 47 48  1  0  0  0
 47 49  1  0  0  0
M  CHG  1  47   1
M  END
> <energy>
15.0543

> <chiral flag>
0

> <version>
0

> <i_ionizer_Ion_state_n>
1

> <i_ionizer_Tot_Q>
1

> <s_ionizer_Ion_centers>
47

> <s_ionizer_Ion_types>
N5

> <s_ionizer_Ion_ctrs_in>
9

> <r_ionizer_Ionization_penalty>
0.000148807

> <r_ionizer_Ionization_penalty_charging>
0.000148807

> <r_ionizer_Ionization_penalty_neutral>
0

$$$$
ZINC001258435712
                    3D
 Structure written by MMmdl.
 43 44  0  0  1  0            999 V2000
   -3.4386    0.7808    1.7401 C   0  0  0  0  0  0
   -3.6736    0.2169    0.3467 C   0  0  0  0  0  0
   -2.9033    0.9615   -0.7502 C   0  0  0  0  0  0
   -1.3775    0.9032   -0.6153 C   0  0  0  0  0  0
   -0.8075   -0.4932   -0.9143 C   0  0  0  0  0  0
    0.2140   -0.9983    0.1377 C   0  0  1  0  0  0
    0.2603   -2.5541    0.0861 C   0  0  0  0  0  0
    0.8133   -3.1261   -1.2144 C   0  0  0  0  0  0
    2.2152   -0.4888    1.4193 C   0  0  0  0  0  0
    1.8907    0.9032    1.9658 C   0  0  0  0  0  0
    1.8821    1.8221    0.7420 C   0  0  0  0  0  0
    1.8805    0.8591   -0.4222 C   0  0  0  0  0  0
    1.7329    1.3171   -1.8504 C   0  0  0  0  0  0
    3.0910    0.9644   -1.3463 C   0  0  0  0  0  0
   -3.5547    1.8696    1.7496 H   0  0  0  0  0  0
   -4.1599    0.3571    2.4462 H   0  0  0  0  0  0
   -2.4371    0.5350    2.1063 H   0  0  0  0  0  0
   -4.7438    0.2852    0.1193 H   0  0  0  0  0  0
   -3.4239   -0.8490    0.3418 H   0  0  0  0  0  0
   -3.2155    2.0133   -0.7451 H   0  0  0  0  0  0
   -3.1971    0.5579   -1.7275 H   0  0  0  0  0  0
   -1.0846    1.2506    0.3792 H   0  0  0  0  0  0
   -0.9533    1.6187   -1.3271 H   0  0  0  0  0  0
   -0.3722   -0.5065   -1.9189 H   0  0  0  0  0  0
   -1.6338   -1.2127   -0.9671 H   0  0  0  0  0  0
   -0.2145   -0.7375    1.1147 H   0  0  0  0  0  0
    0.8610   -2.9426    0.9173 H   0  0  0  0  0  0
   -0.7505   -2.9515    0.2479 H   0  0  0  0  0  0
    1.8452   -2.8078   -1.3860 H   0  0  0  0  0  0
    0.8046   -4.2196   -1.1749 H   0  0  0  0  0  0
    0.2125   -2.8200   -2.0753 H   0  0  0  0  0  0
    1.8690   -1.2842    2.0870 H   0  0  0  0  0  0
    3.3023   -0.6069    1.3229 H   0  0  0  0  0  0
    0.8995    0.9089    2.4359 H   0  0  0  0  0  0
    2.6171    1.2291    2.7172 H   0  0  0  0  0  0
    0.9937    2.4628    0.7390 H   0  0  0  0  0  0
    2.7665    2.4702    0.7453 H   0  0  0  0  0  0
    1.3161    0.6506   -2.5928 H   0  0  0  0  0  0
    1.5149    2.3624   -2.0337 H   0  0  0  0  0  0
    3.5391    0.0463   -1.7134 H   0  0  0  0  0  0
    3.8040    1.7651   -1.1936 H   0  0  0  0  0  0
    1.6739   -0.5225    0.0891 N   0  3  2  0  0  0
    2.2040   -1.1793   -0.4956 H   0  0  0  0  0  0
  1  2  1  0  0  0
  1 15  1  0  0  0
  1 16  1  0  0  0
  1 17  1  0  0  0
  2  3  1  0  0  0
  2 18  1  0  0  0
  2 19  1  0  0  0
  3  4  1  0  0  0
  3 20  1  0  0  0
  3 21  1  0  0  0
  4  5  1  0  0  0
  4 22  1  0  0  0
  4 23  1  0  0  0
  5  6  1  0  0  0
  5 24  1  0  0  0
  5 25  1  0  0  0
  6  7  1  0  0  0
  6 26  1  0  0  0
  6 42  1  0  0  0
  7  8  1  0  0  0
  7 27  1  0  0  0
  7 28  1  0  0  0
  8 29  1  0  0  0
  8 30  1  0  0  0
  8 31  1  0  0  0
  9 10  1  0  0  0
  9 32  1  0  0  0
  9 33  1  0  0  0
  9 42  1  0  0  0
 10 11  1  0  0  0
 10 34  1  0  0  0
 10 35  1  0  0  0
 11 12  1  0  0  0
 11 36  1  0  0  0
 11 37  1  0  0  0
 12 13  1  0  0  0
 12 14  1  0  0  0
 12 42  1  0  0  0
 13 14  1  0  0  0
 13 38  1  0  0  0
 13 39  1  0  0  0
 14 40  1  0  0  0
 14 41  1  0  0  0
 42 43  1  0  0  0
M  CHG  1  42   1
M  END
> <energy>
21.2335

> <chiral flag>
0

> <version>
0

> <i_ionizer_Ion_state_n>
1

> <i_ionizer_Tot_Q>
1

> <s_ionizer_Ion_centers>
42

> <s_ionizer_Ion_types>
N5

> <s_ionizer_Ion_ctrs_in>
9

> <r_ionizer_Ionization_penalty>
0.00148639

> <r_ionizer_Ionization_penalty_charging>
0.00148639

> <r_ionizer_Ionization_penalty_neutral>
0

$$$$
ZINC001258435713
                    3D
 Structure written by MMmdl.
 43 44  0  0  1  0            999 V2000
   -3.6340    2.1861    0.8980 C   0  0  0  0  0  0
   -2.5815    1.5595    1.8082 C   0  0  0  0  0  0
   -2.5569    0.0257    1.7388 C   0  0  0  0  0  0
   -1.9443   -0.5062    0.4311 C   0  0  0  0  0  0
   -0.9139   -1.6374    0.6151 C   0  0  0  0  0  0
    0.6263   -1.2751    0.3377 C   0  0  3  0  0  0
    0.9212   -0.4528    1.6059 C   0  0  0  0  0  0
    2.1365   -1.0103    2.3617 C   0  0  0  0  0  0
    2.3780   -1.6118   -1.3415 C   0  0  0  0  0  0
    2.2517   -1.2343   -2.8253 C   0  0  0  0  0  0
    1.1077   -0.2317   -2.8895 C   0  0  0  0  0  0
    1.1900    0.4187   -1.5387 C   0  0  0  0  0  0
    1.8818    1.7553   -1.4843 C   0  0  0  0  0  0
    0.4153    1.6596   -1.2150 C   0  0  0  0  0  0
   -3.5710    3.2766    0.9544 H   0  0  0  0  0  0
   -3.5001    1.8932   -0.1494 H   0  0  0  0  0  0
   -4.6475    1.9040    1.1987 H   0  0  0  0  0  0
   -2.7877    1.8686    2.8403 H   0  0  0  0  0  0
   -1.5849    1.9559    1.5709 H   0  0  0  0  0  0
   -3.5810   -0.3525    1.8528 H   0  0  0  0  0  0
   -2.0008   -0.3517    2.6038 H   0  0  0  0  0  0
   -1.5264    0.3067   -0.1637 H   0  0  0  0  0  0
   -2.7563   -0.9178   -0.1774 H   0  0  0  0  0  0
   -0.9905   -2.1264    1.5983 H   0  0  0  0  0  0
   -1.1939   -2.4781   -0.0503 H   0  0  0  0  0  0
    0.1647   -1.3756   -0.6396 H   0  0  0  0  0  0
    1.0676    0.6162    1.4013 H   0  0  0  0  0  0
    0.1029   -0.4684    2.3308 H   0  0  0  0  0  0
    1.9891   -2.0775    2.5809 H   0  0  0  0  0  0
    3.0580   -0.8796    1.7838 H   0  0  0  0  0  0
    2.2675   -0.4872    3.3201 H   0  0  0  0  0  0
    3.4293   -1.6469   -1.0446 H   0  0  0  0  0  0
    1.9622   -2.6091   -1.1801 H   0  0  0  0  0  0
    3.1835   -0.7742   -3.1699 H   0  0  0  0  0  0
    2.0627   -2.0984   -3.4667 H   0  0  0  0  0  0
    1.2169    0.4596   -3.7299 H   0  0  0  0  0  0
    0.1466   -0.7418   -2.9921 H   0  0  0  0  0  0
    2.2079    2.2173   -2.4097 H   0  0  0  0  0  0
    2.5413    1.9544   -0.6488 H   0  0  0  0  0  0
   -0.2792    2.0242   -1.9609 H   0  0  0  0  0  0
    0.0955    1.8498   -0.1993 H   0  0  0  0  0  0
    1.7103   -0.5906   -0.5577 N   0  3  1  0  0  0
    2.3867   -0.1257    0.0591 H   0  0  0  0  0  0
  1  2  1  0  0  0
  1 15  1  0  0  0
  1 16  1  0  0  0
  1 17  1  0  0  0
  2  3  1  0  0  0
  2 18  1  0  0  0
  2 19  1  0  0  0
  3  4  1  0  0  0
  3 20  1  0  0  0
  3 21  1  0  0  0
  4  5  1  0  0  0
  4 22  1  0  0  0
  4 23  1  0  0  0
  5  6  1  0  0  0
  5 24  1  0  0  0
  5 25  1  0  0  0
  6  7  1  0  0  0
  6 26  1  0  0  0
  6 42  1  0  0  0
  7  8  1  0  0  0
  7 27  1  0  0  0
  7 28  1  0  0  0
  8 29  1  0  0  0
  8 30  1  0  0  0
  8 31  1  0  0  0
  9 10  1  0  0  0
  9 32  1  0  0  0
  9 33  1  0  0  0
  9 42  1  0  0  0
 10 11  1  0  0  0
 10 34  1  0  0  0
 10 35  1  0  0  0
 11 12  1  0  0  0
 11 36  1  0  0  0
 11 37  1  0  0  0
 12 13  1  0  0  0
 12 14  1  0  0  0
 12 42  1  0  0  0
 13 14  1  0  0  0
 13 38  1  0  0  0
 13 39  1  0  0  0
 14 40  1  0  0  0
 14 41  1  0  0  0
 42 43  1  0  0  0
M  CHG  1  42   1
M  END
> <energy>
116.091

> <chiral flag>
0

> <version>
0

> <i_ionizer_Ion_state_n>
1

> <i_ionizer_Tot_Q>
1

> <s_ionizer_Ion_centers>
42

> <s_ionizer_Ion_types>
N5

> <s_ionizer_Ion_ctrs_in>
9

> <r_ionizer_Ionization_penalty>
0.00148639

> <r_ionizer_Ionization_penalty_charging>
0.00148639

> <r_ionizer_Ionization_penalty_neutral>
0

$$$$
ZINC001258435740
                    3D
 Structure written by MMmdl.
 44 44  0  0  1  0            999 V2000
    3.4106   -1.8819   -2.8649 C   0  0  0  0  0  0
    2.1496   -1.1331   -2.4632 C   0  0  0  0  0  0
    1.0984   -2.1014   -1.9194 C   0  0  0  0  0  0
   -0.2524   -1.4357   -1.6479 C   0  0  0  0  0  0
   -0.2394   -0.4850   -0.4389 C   0  0  0  0  0  0
   -1.6010    0.2350   -0.2460 C   0  0  2  0  0  0
   -1.5706    1.6888   -0.7869 C   0  0  0  0  0  0
   -1.2815    1.7956   -2.2777 C   0  0  0  0  0  0
   -3.5333    0.1491    1.2278 C   0  0  0  0  0  0
   -1.5035    1.0624    2.1355 C   0  0  0  0  0  0
   -0.1194    0.7253    2.6152 C   0  0  0  0  0  0
    0.9877    1.5187    2.3066 C   0  0  0  0  0  0
    2.2355    1.2035    2.8360 C   0  0  0  0  0  0
    2.3384    0.0997    3.6644 C   0  0  0  0  0  0
    1.3007   -0.7007    3.9773 N   0  0  0  0  0  0
    0.0996   -0.3734    3.4428 C   0  0  0  0  0  0
    3.1952   -2.6209   -3.6436 H   0  0  0  0  0  0
    4.1585   -1.1848   -3.2521 H   0  0  0  0  0  0
    3.8422   -2.4061   -2.0062 H   0  0  0  0  0  0
    2.4052   -0.3829   -1.7094 H   0  0  0  0  0  0
    1.7545   -0.5970   -3.3325 H   0  0  0  0  0  0
    1.4717   -2.5858   -1.0072 H   0  0  0  0  0  0
    0.9387   -2.9014   -2.6543 H   0  0  0  0  0  0
   -0.9851   -2.2306   -1.4558 H   0  0  0  0  0  0
   -0.5863   -0.9158   -2.5504 H   0  0  0  0  0  0
    0.5672    0.2510   -0.5334 H   0  0  0  0  0  0
    0.0038   -1.0952    0.4392 H   0  0  0  0  0  0
   -2.3286   -0.3146   -0.8620 H   0  0  0  0  0  0
   -2.5373    2.1699   -0.6004 H   0  0  0  0  0  0
   -0.8140    2.2800   -0.2600 H   0  0  0  0  0  0
   -0.2627    1.4769   -2.5149 H   0  0  0  0  0  0
   -1.3831    2.8334   -2.6086 H   0  0  0  0  0  0
   -1.9821    1.1909   -2.8592 H   0  0  0  0  0  0
   -3.9661   -0.6489    0.6151 H   0  0  0  0  0  0
   -3.8778   -0.0415    2.2516 H   0  0  0  0  0  0
   -3.9472    1.1083    0.8973 H   0  0  0  0  0  0
   -1.5569    2.0997    1.7866 H   0  0  0  0  0  0
   -2.1232    1.0656    3.0445 H   0  0  0  0  0  0
    0.8808    2.3804    1.6578 H   0  0  0  0  0  0
    3.1053    1.8091    2.6114 H   0  0  0  0  0  0
    3.2892   -0.1774    4.1097 H   0  0  0  0  0  0
   -0.7129   -1.0423    3.7127 H   0  0  0  0  0  0
   -2.0758    0.0552    1.1884 N   0  3  2  0  0  0
   -1.7916   -0.8795    1.5044 H   0  0  0  0  0  0
  1  2  1  0  0  0
  1 17  1  0  0  0
  1 18  1  0  0  0
  1 19  1  0  0  0
  2  3  1  0  0  0
  2 20  1  0  0  0
  2 21  1  0  0  0
  3  4  1  0  0  0
  3 22  1  0  0  0
  3 23  1  0  0  0
  4  5  1  0  0  0
  4 24  1  0  0  0
  4 25  1  0  0  0
  5  6  1  0  0  0
  5 26  1  0  0  0
  5 27  1  0  0  0
  6  7  1  0  0  0
  6 28  1  0  0  0
  6 43  1  0  0  0
  7  8  1  0  0  0
  7 29  1  0  0  0
  7 30  1  0  0  0
  8 31  1  0  0  0
  8 32  1  0  0  0
  8 33  1  0  0  0
  9 34  1  0  0  0
  9 35  1  0  0  0
  9 36  1  0  0  0
  9 43  1  0  0  0
 10 11  1  0  0  0
 10 37  1  0  0  0
 10 38  1  0  0  0
 10 43  1  0  0  0
 11 12  2  0  0  0
 11 16  1  0  0  0
 12 13  1  0  0  0
 12 39  1  0  0  0
 13 14  2  0  0  0
 13 40  1  0  0  0
 14 15  1  0  0  0
 14 41  1  0  0  0
 15 16  2  0  0  0
 16 42  1  0  0  0
 43 44  1  0  0  0
M  CHG  1  43   1
M  END
> <energy>
32.8337

> <chiral flag>
0

> <version>
0

> <i_ionizer_Ion_state_n>
1

> <i_ionizer_Tot_Q>
1

> <s_ionizer_Ion_centers>
43

> <s_ionizer_Ion_types>
N5

> <s_ionizer_Ion_ctrs_in>
9

> <r_ionizer_Ionization_penalty>
0.00889878

> <r_ionizer_Ionization_penalty_charging>
0.00148639

> <r_ionizer_Ionization_penalty_neutral>
0.00741239

$$$$
ZINC001258435742
                    3D
 Structure written by MMmdl.
 44 44  0  0  1  0            999 V2000
   -0.9299   -4.3725    1.0886 C   0  0  0  0  0  0
   -0.8183   -3.4073    2.2587 C   0  0  0  0  0  0
   -1.5334   -2.0800    2.0062 C   0  0  0  0  0  0
   -0.8129   -1.1836    0.9971 C   0  0  0  0  0  0
   -1.6479    0.0668    0.6896 C   0  0  0  0  0  0
   -0.9317    1.0864   -0.2352 C   0  0  1  0  0  0
   -1.8752    2.2743   -0.5593 C   0  0  0  0  0  0
   -2.9397    1.9266   -1.5938 C   0  0  0  0  0  0
    0.2437    2.3950    1.5001 C   0  0  0  0  0  0
    1.2692    2.0959   -0.6675 C   0  0  0  0  0  0
    2.3445    1.1727   -1.1889 C   0  0  0  0  0  0
    2.1816   -0.2012   -1.3818 C   0  0  0  0  0  0
    3.2057   -0.9563   -1.9505 C   0  0  0  0  0  0
    4.3712   -0.3098   -2.3214 C   0  0  0  0  0  0
    4.5754    1.0142   -2.1624 N   0  0  0  0  0  0
    3.5604    1.7160   -1.6071 C   0  0  0  0  0  0
   -1.9799   -4.5645    0.8420 H   0  0  0  0  0  0
   -0.4340   -3.9851    0.1955 H   0  0  0  0  0  0
   -0.4619   -5.3276    1.3442 H   0  0  0  0  0  0
   -1.2688   -3.8804    3.1393 H   0  0  0  0  0  0
    0.2368   -3.2313    2.4978 H   0  0  0  0  0  0
   -2.5603   -2.2717    1.6721 H   0  0  0  0  0  0
   -1.6090   -1.5401    2.9578 H   0  0  0  0  0  0
   -0.6356   -1.7223    0.0615 H   0  0  0  0  0  0
    0.1657   -0.9077    1.4044 H   0  0  0  0  0  0
   -1.9574    0.5452    1.6259 H   0  0  0  0  0  0
   -2.5738   -0.2640    0.2057 H   0  0  0  0  0  0
   -0.7270    0.5516   -1.1732 H   0  0  0  0  0  0
   -1.3072    3.1206   -0.9610 H   0  0  0  0  0  0
   -2.3640    2.6365    0.3542 H   0  0  0  0  0  0
   -3.5987    1.1234   -1.2567 H   0  0  0  0  0  0
   -2.4748    1.6207   -2.5352 H   0  0  0  0  0  0
   -3.5591    2.8050   -1.8011 H   0  0  0  0  0  0
   -0.4242    1.9865    2.2631 H   0  0  0  0  0  0
   -0.1224    3.3895    1.2213 H   0  0  0  0  0  0
    1.2185    2.5200    1.9870 H   0  0  0  0  0  0
    0.7163    2.4750   -1.5348 H   0  0  0  0  0  0
    1.7756    2.9703   -0.2395 H   0  0  0  0  0  0
    1.2619   -0.6958   -1.0942 H   0  0  0  0  0  0
    3.0967   -2.0231   -2.1011 H   0  0  0  0  0  0
    5.1944   -0.8521   -2.7768 H   0  0  0  0  0  0
    3.7594    2.7799   -1.5143 H   0  0  0  0  0  0
    0.4062    1.4645    0.3545 N   0  3  2  0  0  0
    0.8649    0.6092    0.6897 H   0  0  0  0  0  0
  1  2  1  0  0  0
  1 17  1  0  0  0
  1 18  1  0  0  0
  1 19  1  0  0  0
  2  3  1  0  0  0
  2 20  1  0  0  0
  2 21  1  0  0  0
  3  4  1  0  0  0
  3 22  1  0  0  0
  3 23  1  0  0  0
  4  5  1  0  0  0
  4 24  1  0  0  0
  4 25  1  0  0  0
  5  6  1  0  0  0
  5 26  1  0  0  0
  5 27  1  0  0  0
  6  7  1  0  0  0
  6 28  1  0  0  0
  6 43  1  0  0  0
  7  8  1  0  0  0
  7 29  1  0  0  0
  7 30  1  0  0  0
  8 31  1  0  0  0
  8 32  1  0  0  0
  8 33  1  0  0  0
  9 34  1  0  0  0
  9 35  1  0  0  0
  9 36  1  0  0  0
  9 43  1  0  0  0
 10 11  1  0  0  0
 10 37  1  0  0  0
 10 38  1  0  0  0
 10 43  1  0  0  0
 11 12  2  0  0  0
 11 16  1  0  0  0
 12 13  1  0  0  0
 12 39  1  0  0  0
 13 14  2  0  0  0
 13 40  1  0  0  0
 14 15  1  0  0  0
 14 41  1  0  0  0
 15 16  2  0  0  0
 16 42  1  0  0  0
 43 44  1  0  0  0
M  CHG  1  43   1
M  END
> <energy>
30.9641

> <chiral flag>
0

> <version>
0

> <i_ionizer_Ion_state_n>
1

> <i_ionizer_Tot_Q>
1

> <s_ionizer_Ion_centers>
43

> <s_ionizer_Ion_types>
N5

> <s_ionizer_Ion_ctrs_in>
9

> <r_ionizer_Ionization_penalty>
0.00889878

> <r_ionizer_Ionization_penalty_charging>
0.00148639

> <r_ionizer_Ionization_penalty_neutral>
0.00741239

$$$$
ZINC001258436386
                    3D
 Structure written by MMmdl.
 44 44  0  0  1  0            999 V2000
   -4.8682   -0.8019    0.5843 C   0  0  0  0  0  0
   -3.8701    0.1878    1.1679 C   0  0  0  0  0  0
   -2.5475   -0.4581    1.5833 C   0  0  0  0  0  0
   -1.6770   -0.8533    0.3883 C   0  0  0  0  0  0
   -0.3571   -1.4954    0.8378 C   0  0  0  0  0  0
    0.6732   -1.6639   -0.3145 C   0  0  2  0  0  0
    1.8340   -2.5629    0.1813 C   0  0  0  0  0  0
    2.8416   -2.9767   -0.8778 C   0  0  0  0  0  0
    1.2727   -0.3140   -2.2730 C   0  0  0  0  0  0
    2.0491    0.4163   -0.0922 C   0  0  0  0  0  0
    1.8196    1.9245   -0.1326 C   0  0  0  0  0  0
    0.7702    2.4707    0.6042 C   0  0  0  0  0  0
    0.5504    3.8438    0.5635 C   0  0  0  0  0  0
    1.3651    4.6357   -0.2360 C   0  0  0  0  0  0
    2.3856    4.0191   -0.9408 C   0  0  0  0  0  0
    2.6370    2.6882   -0.9061 N   0  0  0  0  0  0
   -5.8072   -0.2882    0.3480 H   0  0  0  0  0  0
   -5.0868   -1.6004    1.3028 H   0  0  0  0  0  0
   -4.5036   -1.2605   -0.3417 H   0  0  0  0  0  0
   -3.6866    0.9954    0.4501 H   0  0  0  0  0  0
   -4.3218    0.6488    2.0532 H   0  0  0  0  0  0
   -2.7355   -1.3272    2.2218 H   0  0  0  0  0  0
   -1.9976    0.2648    2.1993 H   0  0  0  0  0  0
   -2.2063   -1.5636   -0.2560 H   0  0  0  0  0  0
   -1.4874    0.0381   -0.2198 H   0  0  0  0  0  0
    0.0883   -0.9176    1.6558 H   0  0  0  0  0  0
   -0.5884   -2.4811    1.2619 H   0  0  0  0  0  0
    0.1495   -2.2236   -1.1026 H   0  0  0  0  0  0
    2.3613   -2.1000    1.0220 H   0  0  0  0  0  0
    1.3987   -3.4830    0.5852 H   0  0  0  0  0  0
    2.3383   -3.4079   -1.7500 H   0  0  0  0  0  0
    3.4583   -2.1363   -1.2046 H   0  0  0  0  0  0
    3.5151   -3.7355   -0.4651 H   0  0  0  0  0  0
    2.1163   -0.9470   -2.5675 H   0  0  0  0  0  0
    0.3861   -0.6550   -2.8178 H   0  0  0  0  0  0
    1.4771    0.7006   -2.6324 H   0  0  0  0  0  0
    2.0499    0.1445    0.9708 H   0  0  0  0  0  0
    3.0531    0.1829   -0.4659 H   0  0  0  0  0  0
    0.1244    1.8302    1.1976 H   0  0  0  0  0  0
   -0.2574    4.2878    1.1369 H   0  0  0  0  0  0
    1.2099    5.7078   -0.3086 H   0  0  0  0  0  0
    3.0521    4.5979   -1.5760 H   0  0  0  0  0  0
    0.9477   -0.2753   -0.8388 N   0  3  2  0  0  0
    0.0908    0.2775   -0.7190 H   0  0  0  0  0  0
  1  2  1  0  0  0
  1 17  1  0  0  0
  1 18  1  0  0  0
  1 19  1  0  0  0
  2  3  1  0  0  0
  2 20  1  0  0  0
  2 21  1  0  0  0
  3  4  1  0  0  0
  3 22  1  0  0  0
  3 23  1  0  0  0
  4  5  1  0  0  0
  4 24  1  0  0  0
  4 25  1  0  0  0
  5  6  1  0  0  0
  5 26  1  0  0  0
  5 27  1  0  0  0
  6  7  1  0  0  0
  6 28  1  0  0  0
  6 43  1  0  0  0
  7  8  1  0  0  0
  7 29  1  0  0  0
  7 30  1  0  0  0
  8 31  1  0  0  0
  8 32  1  0  0  0
  8 33  1  0  0  0
  9 34  1  0  0  0
  9 35  1  0  0  0
  9 36  1  0  0  0
  9 43  1  0  0  0
 10 11  1  0  0  0
 10 37  1  0  0  0
 10 38  1  0  0  0
 10 43  1  0  0  0
 11 12  2  0  0  0
 11 16  1  0  0  0
 12 13  1  0  0  0
 12 39  1  0  0  0
 13 14  2  0  0  0
 13 40  1  0  0  0
 14 15  1  0  0  0
 14 41  1  0  0  0
 15 16  2  0  0  0
 15 42  1  0  0  0
 43 44  1  0  0  0
M  CHG  1  43   1
M  END
> <energy>
47.1995

> <chiral flag>
0

> <version>
0

> <i_ionizer_Ion_state_n>
1

> <i_ionizer_Tot_Q>
1

> <s_ionizer_Ion_centers>
43

> <s_ionizer_Ion_types>
N5

> <s_ionizer_Ion_ctrs_in>
9

> <r_ionizer_Ionization_penalty>
0.00889878

> <r_ionizer_Ionization_penalty_charging>
0.00148639

> <r_ionizer_Ionization_penalty_neutral>
0.00741239

$$$$
ZINC001258436391
                    3D
 Structure written by MMmdl.
 44 44  0  0  1  0            999 V2000
   -2.9798    2.6491   -2.0300 C   0  0  0  0  0  0
   -3.1023    2.5628   -0.5144 C   0  0  0  0  0  0
   -3.4680    1.1574   -0.0225 C   0  0  0  0  0  0
   -2.3072    0.3646    0.5894 C   0  0  0  0  0  0
   -1.2773   -0.0972   -0.4518 C   0  0  0  0  0  0
   -0.2159   -1.0887    0.1093 C   0  0  1  0  0  0
   -0.8557   -2.4810    0.3955 C   0  0  0  0  0  0
   -0.1159   -3.3280    1.4333 C   0  0  0  0  0  0
    0.7851   -1.8020   -2.0719 C   0  0  0  0  0  0
    2.2586   -1.2320   -0.2154 C   0  0  0  0  0  0
    2.8033    0.0482    0.4090 C   0  0  0  0  0  0
    3.6520   -0.0226    1.5105 C   0  0  0  0  0  0
    4.1504    1.1593    2.0556 C   0  0  0  0  0  0
    3.8156    2.3769    1.4740 C   0  0  0  0  0  0
    3.0207    2.3560    0.3403 C   0  0  0  0  0  0
    2.5135    1.2271   -0.1960 N   0  0  0  0  0  0
   -3.9208    2.3690   -2.5144 H   0  0  0  0  0  0
   -2.7496    3.6791   -2.3228 H   0  0  0  0  0  0
   -2.1893    2.0012   -2.4094 H   0  0  0  0  0  0
   -3.9043    3.2511   -0.2086 H   0  0  0  0  0  0
   -2.1807    2.9163   -0.0381 H   0  0  0  0  0  0
   -3.9323    0.5651   -0.8210 H   0  0  0  0  0  0
   -4.2331    1.2656    0.7555 H   0  0  0  0  0  0
   -1.8059    0.9527    1.3633 H   0  0  0  0  0  0
   -2.7371   -0.4972    1.1049 H   0  0  0  0  0  0
   -0.7723    0.7966   -0.8389 H   0  0  0  0  0  0
   -1.8102   -0.5540   -1.2938 H   0  0  0  0  0  0
    0.1119   -0.6647    1.0662 H   0  0  0  0  0  0
   -1.8779   -2.3488    0.7749 H   0  0  0  0  0  0
   -0.9744   -3.0642   -0.5275 H   0  0  0  0  0  0
    0.8587   -3.6760    1.0741 H   0  0  0  0  0  0
   -0.7139   -4.2189    1.6694 H   0  0  0  0  0  0
    0.0242   -2.7719    2.3705 H   0  0  0  0  0  0
    1.5669   -1.4954   -2.7783 H   0  0  0  0  0  0
   -0.1626   -1.5676   -2.5684 H   0  0  0  0  0  0
    0.8647   -2.8858   -1.9431 H   0  0  0  0  0  0
    2.2644   -2.0484    0.5152 H   0  0  0  0  0  0
    2.9981   -1.5102   -0.9802 H   0  0  0  0  0  0
    3.9300   -0.9785    1.9441 H   0  0  0  0  0  0
    4.8051    1.1364    2.9190 H   0  0  0  0  0  0
    4.1722    3.3146    1.8785 H   0  0  0  0  0  0
    2.7631    3.2674   -0.1844 H   0  0  0  0  0  0
    0.9501   -0.9524   -0.8602 N   0  3  2  0  0  0
    0.9665    0.0256   -1.1725 H   0  0  0  0  0  0
  1  2  1  0  0  0
  1 17  1  0  0  0
  1 18  1  0  0  0
  1 19  1  0  0  0
  2  3  1  0  0  0
  2 20  1  0  0  0
  2 21  1  0  0  0
  3  4  1  0  0  0
  3 22  1  0  0  0
  3 23  1  0  0  0
  4  5  1  0  0  0
  4 24  1  0  0  0
  4 25  1  0  0  0
  5  6  1  0  0  0
  5 26  1  0  0  0
  5 27  1  0  0  0
  6  7  1  0  0  0
  6 28  1  0  0  0
  6 43  1  0  0  0
  7  8  1  0  0  0
  7 29  1  0  0  0
  7 30  1  0  0  0
  8 31  1  0  0  0
  8 32  1  0  0  0
  8 33  1  0  0  0
  9 34  1  0  0  0
  9 35  1  0  0  0
  9 36  1  0  0  0
  9 43  1  0  0  0
 10 11  1  0  0  0
 10 37  1  0  0  0
 10 38  1  0  0  0
 10 43  1  0  0  0
 11 12  2  0  0  0
 11 16  1  0  0  0
 12 13  1  0  0  0
 12 39  1  0  0  0
 13 14  2  0  0  0
 13 40  1  0  0  0
 14 15  1  0  0  0
 14 41  1  0  0  0
 15 16  2  0  0  0
 15 42  1  0  0  0
 43 44  1  0  0  0
M  CHG  1  43   1
M  END
> <energy>
58.9796

> <chiral flag>
0

> <version>
0

> <i_ionizer_Ion_state_n>
1

> <i_ionizer_Tot_Q>
1

> <s_ionizer_Ion_centers>
43

> <s_ionizer_Ion_types>
N5

> <s_ionizer_Ion_ctrs_in>
9

> <r_ionizer_Ionization_penalty>
0.00889878

> <r_ionizer_Ionization_penalty_charging>
0.00148639

> <r_ionizer_Ionization_penalty_neutral>
0.00741239

$$$$
ZINC001258436412
                    3D
 Structure written by MMmdl.
 38 37  0  0  1  0            999 V2000
   -3.4448    1.2135   -1.4941 C   0  0  0  0  0  0
   -3.7764    0.1838   -0.4226 C   0  0  0  0  0  0
   -2.5774   -0.6992   -0.0708 C   0  0  0  0  0  0
   -1.6095   -0.0271    0.9157 C   0  0  0  0  0  0
   -0.3141   -0.8380    1.0951 C   0  0  0  0  0  0
    0.7194   -0.6046   -0.0456 C   0  0  2  0  0  0
    1.8073   -1.7033   -0.0892 C   0  0  0  0  0  0
    1.2761   -3.0479   -0.5772 C   0  0  0  0  0  0
    1.7308    1.2549   -1.2629 C   0  0  0  0  0  0
    2.3058    0.9566    1.0896 C   0  0  0  0  0  0
    2.6994    2.3939    1.4849 C   0  0  0  0  0  0
    3.5596    2.3698    2.5341 F   0  0  0  0  0  0
    3.3236    3.0441    0.4790 F   0  0  0  0  0  0
    1.6269    3.1234    1.8662 F   0  0  0  0  0  0
   -3.0832    0.7265   -2.4055 H   0  0  0  0  0  0
   -4.3425    1.7840   -1.7517 H   0  0  0  0  0  0
   -2.6805    1.9177   -1.1559 H   0  0  0  0  0  0
   -4.1570    0.6867    0.4738 H   0  0  0  0  0  0
   -4.5842   -0.4542   -0.8002 H   0  0  0  0  0  0
   -2.0594   -0.9938   -0.9908 H   0  0  0  0  0  0
   -2.9484   -1.6251    0.3902 H   0  0  0  0  0  0
   -2.1118    0.0465    1.8882 H   0  0  0  0  0  0
   -1.3795    0.9967    0.6043 H   0  0  0  0  0  0
   -0.5706   -1.8994    1.1720 H   0  0  0  0  0  0
    0.1238   -0.5757    2.0647 H   0  0  0  0  0  0
    0.1573   -0.6786   -0.9840 H   0  0  0  0  0  0
    2.6065   -1.4080   -0.7795 H   0  0  0  0  0  0
    2.2691   -1.8363    0.8967 H   0  0  0  0  0  0
    2.1044   -3.7515   -0.7085 H   0  0  0  0  0  0
    0.7714   -2.9418   -1.5437 H   0  0  0  0  0  0
    0.5734   -3.4904    0.1326 H   0  0  0  0  0  0
    0.9737    1.0902   -2.0382 H   0  0  0  0  0  0
    2.6548    0.7595   -1.5806 H   0  0  0  0  0  0
    1.9017    2.3347   -1.2381 H   0  0  0  0  0  0
    1.9681    0.4815    2.0177 H   0  0  0  0  0  0
    3.2249    0.4352    0.7935 H   0  0  0  0  0  0
    1.2223    0.8171    0.0478 N   0  3  2  0  0  0
    0.4365    1.4215    0.3149 H   0  0  0  0  0  0
  1  2  1  0  0  0
  1 15  1  0  0  0
  1 16  1  0  0  0
  1 17  1  0  0  0
  2  3  1  0  0  0
  2 18  1  0  0  0
  2 19  1  0  0  0
  3  4  1  0  0  0
  3 20  1  0  0  0
  3 21  1  0  0  0
  4  5  1  0  0  0
  4 22  1  0  0  0
  4 23  1  0  0  0
  5  6  1  0  0  0
  5 24  1  0  0  0
  5 25  1  0  0  0
  6  7  1  0  0  0
  6 26  1  0  0  0
  6 37  1  0  0  0
  7  8  1  0  0  0
  7 27  1  0  0  0
  7 28  1  0  0  0
  8 29  1  0  0  0
  8 30  1  0  0  0
  8 31  1  0  0  0
  9 32  1  0  0  0
  9 33  1  0  0  0
  9 34  1  0  0  0
  9 37  1  0  0  0
 10 11  1  0  0  0
 10 35  1  0  0  0
 10 36  1  0  0  0
 10 37  1  0  0  0
 11 12  1  0  0  0
 11 13  1  0  0  0
 11 14  1  0  0  0
 37 38  1  0  0  0
M  CHG  1  37   1
M  END
> <energy>
76.3355

> <chiral flag>
0

> <version>
0

> <i_ionizer_Ion_state_n>
1

> <i_ionizer_Tot_Q>
1

> <s_ionizer_Ion_centers>
37

> <s_ionizer_Ion_types>
N5

> <s_ionizer_Ion_ctrs_in>
9

> <r_ionizer_Ionization_penalty>
0.00148639

> <r_ionizer_Ionization_penalty_charging>
0.00148639

> <r_ionizer_Ionization_penalty_neutral>
0

$$$$
ZINC001258436414
                    3D
 Structure written by MMmdl.
 38 37  0  0  1  0            999 V2000
   -4.4143    0.6992    0.5281 C   0  0  0  0  0  0
   -3.5627   -0.5540    0.4002 C   0  0  0  0  0  0
   -2.1806   -0.2387   -0.1751 C   0  0  0  0  0  0
   -1.3392   -1.5118   -0.3106 C   0  0  0  0  0  0
    0.0338   -1.2696   -0.9618 C   0  0  0  0  0  0
    1.0319   -0.4723   -0.0600 C   0  0  1  0  0  0
    2.1648   -1.4558    0.3780 C   0  0  0  0  0  0
    1.6781   -2.5946    1.2694 C   0  0  0  0  0  0
    0.7530    1.5455   -1.5001 C   0  0  0  0  0  0
    2.2743    1.6213    0.3703 C   0  0  0  0  0  0
    3.1212    2.8483   -0.0494 C   0  0  0  0  0  0
    3.7865    3.3434    1.0247 F   0  0  0  0  0  0
    2.3509    3.8531   -0.5264 F   0  0  0  0  0  0
    4.0422    2.5405   -0.9863 F   0  0  0  0  0  0
   -4.6162    1.1329   -0.4561 H   0  0  0  0  0  0
   -5.3745    0.4568    0.9976 H   0  0  0  0  0  0
   -3.9184    1.4574    1.1436 H   0  0  0  0  0  0
   -4.0816   -1.2704   -0.2468 H   0  0  0  0  0  0
   -3.4593   -1.0238    1.3847 H   0  0  0  0  0  0
   -2.2972    0.2319   -1.1603 H   0  0  0  0  0  0
   -1.6729    0.4858    0.4759 H   0  0  0  0  0  0
   -1.8898   -2.2279   -0.9357 H   0  0  0  0  0  0
   -1.2126   -1.9866    0.6693 H   0  0  0  0  0  0
    0.4606   -2.2482   -1.2204 H   0  0  0  0  0  0
   -0.1348   -0.8078   -1.9342 H   0  0  0  0  0  0
    0.4995   -0.1479    0.8426 H   0  0  0  0  0  0
    2.6598   -1.8736   -0.5089 H   0  0  0  0  0  0
    2.9508   -0.9461    0.9411 H   0  0  0  0  0  0
    1.1009   -2.2120    2.1170 H   0  0  0  0  0  0
    1.0592   -3.3097    0.7200 H   0  0  0  0  0  0
    2.5390   -3.1428    1.6673 H   0  0  0  0  0  0
   -0.1010    1.9171   -0.9236 H   0  0  0  0  0  0
    0.3825    1.0125   -2.3768 H   0  0  0  0  0  0
    1.2763    2.4012   -1.9375 H   0  0  0  0  0  0
    1.4766    1.9854    1.0315 H   0  0  0  0  0  0
    2.9483    1.0288    0.9955 H   0  0  0  0  0  0
    1.7128    0.7443   -0.6862 N   0  3  1  0  0  0
    2.4738    0.4176   -1.2932 H   0  0  0  0  0  0
  1  2  1  0  0  0
  1 15  1  0  0  0
  1 16  1  0  0  0
  1 17  1  0  0  0
  2  3  1  0  0  0
  2 18  1  0  0  0
  2 19  1  0  0  0
  3  4  1  0  0  0
  3 20  1  0  0  0
  3 21  1  0  0  0
  4  5  1  0  0  0
  4 22  1  0  0  0
  4 23  1  0  0  0
  5  6  1  0  0  0
  5 24  1  0  0  0
  5 25  1  0  0  0
  6  7  1  0  0  0
  6 26  1  0  0  0
  6 37  1  0  0  0
  7  8  1  0  0  0
  7 27  1  0  0  0
  7 28  1  0  0  0
  8 29  1  0  0  0
  8 30  1  0  0  0
  8 31  1  0  0  0
  9 32  1  0  0  0
  9 33  1  0  0  0
  9 34  1  0  0  0
  9 37  1  0  0  0
 10 11  1  0  0  0
 10 35  1  0  0  0
 10 36  1  0  0  0
 10 37  1  0  0  0
 11 12  1  0  0  0
 11 13  1  0  0  0
 11 14  1  0  0  0
 37 38  1  0  0  0
M  CHG  1  37   1
M  END
> <energy>
82.3009

> <chiral flag>
0

> <version>
0

> <i_ionizer_Ion_state_n>
1

> <i_ionizer_Tot_Q>
1

> <s_ionizer_Ion_centers>
37

> <s_ionizer_Ion_types>
N5

> <s_ionizer_Ion_ctrs_in>
9

> <r_ionizer_Ionization_penalty>
0.00148639

> <r_ionizer_Ionization_penalty_charging>
0.00148639

> <r_ionizer_Ionization_penalty_neutral>
0

$$$$
ZINC001258436766
                    3D
 Structure written by MMmdl.
 41 41  0  0  1  0            999 V2000
   -4.5743    0.2050   -1.2239 C   0  0  0  0  0  0
   -3.8109   -0.2174    0.0221 C   0  0  0  0  0  0
   -2.4307   -0.7706   -0.3342 C   0  0  0  0  0  0
   -1.6830   -1.2469    0.9149 C   0  0  0  0  0  0
   -0.3173   -1.8626    0.5811 C   0  0  0  0  0  0
    0.7934   -0.8353    0.2483 C   0  0  2  0  0  0
    1.9214   -1.5159   -0.5582 C   0  0  0  0  0  0
    1.5474   -1.7096   -2.0234 C   0  0  0  0  0  0
    1.5514    1.1074    1.6466 C   0  0  2  0  0  0
    0.2407    1.8941    1.6783 C   0  0  0  0  0  0
    2.5247    1.6521    0.6547 C   0  0  0  0  0  0
    2.4319    2.3486   -0.5303 C   0  0  0  0  0  0
    3.7660    2.5459   -0.9239 C   0  0  0  0  0  0
    4.6266    2.0183   -0.0472 N   0  0  0  0  0  0
    3.8442    1.4549    0.9452 O   0  0  0  0  0  0
   -3.9926    0.9178   -1.8203 H   0  0  0  0  0  0
   -5.5210    0.6815   -0.9498 H   0  0  0  0  0  0
   -4.8056   -0.6623   -1.8517 H   0  0  0  0  0  0
   -4.3925   -0.9742    0.5613 H   0  0  0  0  0  0
   -3.7006    0.6462    0.6867 H   0  0  0  0  0  0
   -2.5463   -1.6101   -1.0321 H   0  0  0  0  0  0
   -1.8510    0.0026   -0.8537 H   0  0  0  0  0  0
   -2.2896   -2.0154    1.4096 H   0  0  0  0  0  0
   -1.5751   -0.4269    1.6316 H   0  0  0  0  0  0
   -0.4499   -2.5796   -0.2359 H   0  0  0  0  0  0
    0.0023   -2.4676    1.4415 H   0  0  0  0  0  0
    0.3705   -0.0242   -0.3534 H   0  0  0  0  0  0
    2.1698   -2.4880   -0.1138 H   0  0  0  0  0  0
    2.8396   -0.9177   -0.5317 H   0  0  0  0  0  0
    0.6662   -2.3445   -2.1432 H   0  0  0  0  0  0
    2.3758   -2.1811   -2.5605 H   0  0  0  0  0  0
    1.3409   -0.7445   -2.4998 H   0  0  0  0  0  0
    2.0028    1.2547    2.6380 H   0  0  0  0  0  0
    0.4361    2.9577    1.8644 H   0  0  0  0  0  0
   -0.4045    1.5365    2.4879 H   0  0  0  0  0  0
   -0.3205    1.8216    0.7403 H   0  0  0  0  0  0
    1.5336    2.6687   -1.0382 H   0  0  0  0  0  0
    4.1530    3.0424   -1.8033 H   0  0  0  0  0  0
    1.3355   -0.3755    1.5709 N   0  3  0  0  0  0
    0.6712   -0.6451    2.3059 H   0  0  0  0  0  0
    2.2348   -0.8435    1.7340 H   0  0  0  0  0  0
  1  2  1  0  0  0
  1 16  1  0  0  0
  1 17  1  0  0  0
  1 18  1  0  0  0
  2  3  1  0  0  0
  2 19  1  0  0  0
  2 20  1  0  0  0
  3  4  1  0  0  0
  3 21  1  0  0  0
  3 22  1  0  0  0
  4  5  1  0  0  0
  4 23  1  0  0  0
  4 24  1  0  0  0
  5  6  1  0  0  0
  5 25  1  0  0  0
  5 26  1  0  0  0
  6  7  1  0  0  0
  6 27  1  0  0  0
  6 39  1  0  0  0
  7  8  1  0  0  0
  7 28  1  0  0  0
  7 29  1  0  0  0
  8 30  1  0  0  0
  8 31  1  0  0  0
  8 32  1  0  0  0
  9 10  1  0  0  0
  9 11  1  0  0  0
  9 33  1  0  0  0
  9 39  1  0  0  0
 10 34  1  0  0  0
 10 35  1  0  0  0
 10 36  1  0  0  0
 11 12  2  0  0  0
 11 15  1  0  0  0
 12 13  1  0  0  0
 12 37  1  0  0  0
 13 14  2  0  0  0
 13 38  1  0  0  0
 14 15  1  0  0  0
 39 40  1  0  0  0
 39 41  1  0  0  0
M  CHG  1  39   1
M  END
> <energy>
4.0534

> <chiral flag>
0

> <version>
0

> <i_ionizer_Ion_state_n>
1

> <i_ionizer_Tot_Q>
1

> <s_ionizer_Ion_centers>
39

> <s_ionizer_Ion_types>
N5

> <s_ionizer_Ion_ctrs_in>
9

> <r_ionizer_Ionization_penalty>
0.000148807

> <r_ionizer_Ionization_penalty_charging>
0.000148807

> <r_ionizer_Ionization_penalty_neutral>
0

$$$$
ZINC001258436767
                    3D
 Structure written by MMmdl.
 41 41  0  0  1  0            999 V2000
   -4.6440    0.5619   -0.6292 C   0  0  0  0  0  0
   -3.2659    0.0885   -1.0643 C   0  0  0  0  0  0
   -2.4348   -0.3772    0.1306 C   0  0  0  0  0  0
   -1.0488   -0.8619   -0.3055 C   0  0  0  0  0  0
   -0.2017   -1.2662    0.9034 C   0  0  0  0  0  0
    1.3113   -1.4719    0.6515 C   0  0  1  0  0  0
    1.6202   -2.7079   -0.2297 C   0  0  0  0  0  0
    1.5643   -2.5119   -1.7422 C   0  0  0  0  0  0
    2.0412    0.8665    1.0455 C   0  0  1  0  0  0
    3.4907    1.2904    1.3122 C   0  0  0  0  0  0
    1.2601    1.9978    0.4641 C   0  0  0  0  0  0
    0.0856    2.6206    0.8150 C   0  0  0  0  0  0
   -0.0890    3.6049   -0.1716 C   0  0  0  0  0  0
    0.9062    3.6090   -1.0596 N   0  0  0  0  0  0
    1.7553    2.5872   -0.6628 O   0  0  0  0  0  0
   -5.2213    0.9000   -1.4956 H   0  0  0  0  0  0
   -4.5668    1.3974    0.0741 H   0  0  0  0  0  0
   -5.2011   -0.2464   -0.1444 H   0  0  0  0  0  0
   -2.7503    0.9082   -1.5778 H   0  0  0  0  0  0
   -3.3743   -0.7299   -1.7853 H   0  0  0  0  0  0
   -2.3308    0.4499    0.8434 H   0  0  0  0  0  0
   -2.9572   -1.1882    0.6528 H   0  0  0  0  0  0
   -1.1790   -1.7235   -0.9676 H   0  0  0  0  0  0
   -0.5525   -0.0735   -0.8805 H   0  0  0  0  0  0
   -0.6170   -2.1916    1.3246 H   0  0  0  0  0  0
   -0.3257   -0.5136    1.6915 H   0  0  0  0  0  0
    1.7466   -1.7107    1.6331 H   0  0  0  0  0  0
    2.6347   -3.0520    0.0133 H   0  0  0  0  0  0
    0.9504   -3.5315    0.0458 H   0  0  0  0  0  0
    2.2881   -1.7630   -2.0791 H   0  0  0  0  0  0
    0.5745   -2.2131   -2.0898 H   0  0  0  0  0  0
    1.8153   -3.4528   -2.2450 H   0  0  0  0  0  0
    1.6111    0.6137    2.0226 H   0  0  0  0  0  0
    4.0147    1.5656    0.3889 H   0  0  0  0  0  0
    4.0527    0.4796    1.7898 H   0  0  0  0  0  0
    3.5260    2.1594    1.9796 H   0  0  0  0  0  0
   -0.5541    2.3850    1.6506 H   0  0  0  0  0  0
   -0.8917    4.3191   -0.2863 H   0  0  0  0  0  0
    2.0235   -0.2861    0.0990 N   0  3  0  0  0  0
    2.9923   -0.5534   -0.1114 H   0  0  0  0  0  0
    1.5535    0.0060   -0.7658 H   0  0  0  0  0  0
  1  2  1  0  0  0
  1 16  1  0  0  0
  1 17  1  0  0  0
  1 18  1  0  0  0
  2  3  1  0  0  0
  2 19  1  0  0  0
  2 20  1  0  0  0
  3  4  1  0  0  0
  3 21  1  0  0  0
  3 22  1  0  0  0
  4  5  1  0  0  0
  4 23  1  0  0  0
  4 24  1  0  0  0
  5  6  1  0  0  0
  5 25  1  0  0  0
  5 26  1  0  0  0
  6  7  1  0  0  0
  6 27  1  0  0  0
  6 39  1  0  0  0
  7  8  1  0  0  0
  7 28  1  0  0  0
  7 29  1  0  0  0
  8 30  1  0  0  0
  8 31  1  0  0  0
  8 32  1  0  0  0
  9 10  1  0  0  0
  9 11  1  0  0  0
  9 33  1  0  0  0
  9 39  1  0  0  0
 10 34  1  0  0  0
 10 35  1  0  0  0
 10 36  1  0  0  0
 11 12  2  0  0  0
 11 15  1  0  0  0
 12 13  1  0  0  0
 12 37  1  0  0  0
 13 14  2  0  0  0
 13 38  1  0  0  0
 14 15  1  0  0  0
 39 40  1  0  0  0
 39 41  1  0  0  0
M  CHG  1  39   1
M  END
> <energy>
4.89769

> <chiral flag>
0

> <version>
0

> <i_ionizer_Ion_state_n>
1

> <i_ionizer_Tot_Q>
1

> <s_ionizer_Ion_centers>
39

> <s_ionizer_Ion_types>
N5

> <s_ionizer_Ion_ctrs_in>
9

> <r_ionizer_Ionization_penalty>
0.000148807

> <r_ionizer_Ionization_penalty_charging>
0.000148807

> <r_ionizer_Ionization_penalty_neutral>
0

$$$$
ZINC001258436768
                    3D
 Structure written by MMmdl.
 41 41  0  0  1  0            999 V2000
   -3.7733    2.0772    2.1250 C   0  0  0  0  0  0
   -3.6579    0.8017    1.3035 C   0  0  0  0  0  0
   -2.2328    0.2489    1.3298 C   0  0  0  0  0  0
   -2.1481   -1.0987    0.6072 C   0  0  0  0  0  0
   -0.7179   -1.6533    0.5810 C   0  0  0  0  0  0
    0.1593   -1.0525   -0.5411 C   0  0  2  0  0  0
   -0.1522   -1.7160   -1.8996 C   0  0  0  0  0  0
    0.6049   -1.0817   -3.0652 C   0  0  0  0  0  0
    2.1948   -0.1778    0.5180 C   0  0  1  0  0  0
    3.4347   -0.6796    1.2634 C   0  0  0  0  0  0
    2.5458    0.9483   -0.3992 C   0  0  0  0  0  0
    2.0058    2.1919   -0.6244 C   0  0  0  0  0  0
    2.8090    2.7358   -1.6418 C   0  0  0  0  0  0
    3.7834    1.9022   -2.0113 N   0  0  0  0  0  0
    3.6110    0.7694   -1.2323 O   0  0  0  0  0  0
   -3.5430    1.8887    3.1795 H   0  0  0  0  0  0
   -4.7933    2.4717    2.0707 H   0  0  0  0  0  0
   -3.0890    2.8476    1.7535 H   0  0  0  0  0  0
   -4.3572    0.0568    1.7003 H   0  0  0  0  0  0
   -3.9527    1.0101    0.2687 H   0  0  0  0  0  0
   -1.5519    0.9750    0.8703 H   0  0  0  0  0  0
   -1.9099    0.1193    2.3701 H   0  0  0  0  0  0
   -2.7856   -1.8165    1.1392 H   0  0  0  0  0  0
   -2.5539   -1.0118   -0.4063 H   0  0  0  0  0  0
   -0.2619   -1.4834    1.5658 H   0  0  0  0  0  0
   -0.7664   -2.7432    0.4534 H   0  0  0  0  0  0
   -0.0492    0.0182   -0.6399 H   0  0  0  0  0  0
   -1.2238   -1.6398   -2.1164 H   0  0  0  0  0  0
    0.0807   -2.7881   -1.8658 H   0  0  0  0  0  0
    1.6842   -1.2433   -2.9820 H   0  0  0  0  0  0
    0.4175   -0.0051   -3.1166 H   0  0  0  0  0  0
    0.2760   -1.5261   -4.0104 H   0  0  0  0  0  0
    1.4975    0.1867    1.2826 H   0  0  0  0  0  0
    3.1828   -1.4912    1.9560 H   0  0  0  0  0  0
    4.2020   -1.0531    0.5762 H   0  0  0  0  0  0
    3.8853    0.1292    1.8512 H   0  0  0  0  0  0
    1.1507    2.6314   -0.1350 H   0  0  0  0  0  0
    2.7319    3.6951   -2.1305 H   0  0  0  0  0  0
    1.5918   -1.3063   -0.2345 N   0  3  0  0  0  0
    1.6660   -2.1610    0.3296 H   0  0  0  0  0  0
    2.1045   -1.4318   -1.1152 H   0  0  0  0  0  0
  1  2  1  0  0  0
  1 16  1  0  0  0
  1 17  1  0  0  0
  1 18  1  0  0  0
  2  3  1  0  0  0
  2 19  1  0  0  0
  2 20  1  0  0  0
  3  4  1  0  0  0
  3 21  1  0  0  0
  3 22  1  0  0  0
  4  5  1  0  0  0
  4 23  1  0  0  0
  4 24  1  0  0  0
  5  6  1  0  0  0
  5 25  1  0  0  0
  5 26  1  0  0  0
  6  7  1  0  0  0
  6 27  1  0  0  0
  6 39  1  0  0  0
  7  8  1  0  0  0
  7 28  1  0  0  0
  7 29  1  0  0  0
  8 30  1  0  0  0
  8 31  1  0  0  0
  8 32  1  0  0  0
  9 10  1  0  0  0
  9 11  1  0  0  0
  9 33  1  0  0  0
  9 39  1  0  0  0
 10 34  1  0  0  0
 10 35  1  0  0  0
 10 36  1  0  0  0
 11 12  2  0  0  0
 11 15  1  0  0  0
 12 13  1  0  0  0
 12 37  1  0  0  0
 13 14  2  0  0  0
 13 38  1  0  0  0
 14 15  1  0  0  0
 39 40  1  0  0  0
 39 41  1  0  0  0
M  CHG  1  39   1
M  END
> <energy>
2.61405

> <chiral flag>
0

> <version>
0

> <i_ionizer_Ion_state_n>
1

> <i_ionizer_Tot_Q>
1

> <s_ionizer_Ion_centers>
39

> <s_ionizer_Ion_types>
N5

> <s_ionizer_Ion_ctrs_in>
9

> <r_ionizer_Ionization_penalty>
0.000148807

> <r_ionizer_Ionization_penalty_charging>
0.000148807

> <r_ionizer_Ionization_penalty_neutral>
0

$$$$
ZINC001258436769
                    3D
 Structure written by MMmdl.
 41 41  0  0  1  0            999 V2000
   -4.5074    0.2044    1.4126 C   0  0  0  0  0  0
   -3.5229   -0.9580    1.3696 C   0  0  0  0  0  0
   -2.5022   -0.7648    0.2479 C   0  0  0  0  0  0
   -1.5715   -1.9757    0.1040 C   0  0  0  0  0  0
   -0.3765   -1.6618   -0.8085 C   0  0  0  0  0  0
    0.7730   -0.9278   -0.0713 C   0  0  1  0  0  0
    1.6375   -1.9543    0.6912 C   0  0  0  0  0  0
    2.6428   -1.3087    1.6373 C   0  0  0  0  0  0
    1.0784    1.1188   -1.3988 C   0  0  2  0  0  0
    1.0179    1.2666   -2.9201 C   0  0  0  0  0  0
    1.8647    2.2110   -0.7508 C   0  0  0  0  0  0
    1.8297    2.7720    0.5081 C   0  0  0  0  0  0
    2.8119    3.7754    0.4654 C   0  0  0  0  0  0
    3.4190    3.8360   -0.7212 N   0  0  0  0  0  0
    2.8222    2.8417   -1.4879 O   0  0  0  0  0  0
   -3.9857    1.1510    1.6033 H   0  0  0  0  0  0
   -5.0504    0.2963    0.4651 H   0  0  0  0  0  0
   -5.2404    0.0494    2.2091 H   0  0  0  0  0  0
   -4.0733   -1.8957    1.2300 H   0  0  0  0  0  0
   -3.0028   -1.0238    2.3333 H   0  0  0  0  0  0
   -1.9265    0.1482    0.4384 H   0  0  0  0  0  0
   -3.0273   -0.6170   -0.7048 H   0  0  0  0  0  0
   -1.2424   -2.3285    1.0851 H   0  0  0  0  0  0
   -2.1483   -2.7991   -0.3374 H   0  0  0  0  0  0
   -0.7351   -1.0831   -1.6690 H   0  0  0  0  0  0
    0.0076   -2.6050   -1.2206 H   0  0  0  0  0  0
    0.3628   -0.2256    0.6628 H   0  0  0  0  0  0
    2.1795   -2.5947   -0.0160 H   0  0  0  0  0  0
    0.9987   -2.6210    1.2793 H   0  0  0  0  0  0
    3.1272   -2.0839    2.2399 H   0  0  0  0  0  0
    2.1467   -0.6122    2.3243 H   0  0  0  0  0  0
    3.4230   -0.7688    1.0885 H   0  0  0  0  0  0
    0.0416    1.2157   -1.0508 H   0  0  0  0  0  0
    2.0108    1.2049   -3.3776 H   0  0  0  0  0  0
    0.3892    0.4868   -3.3669 H   0  0  0  0  0  0
    0.5885    2.2374   -3.1976 H   0  0  0  0  0  0
    1.1819    2.4917    1.3198 H   0  0  0  0  0  0
    3.1163    4.4570    1.2470 H   0  0  0  0  0  0
    1.6509   -0.2022   -1.0274 N   0  3  0  0  0  0
    2.5697   -0.0571   -0.5925 H   0  0  0  0  0  0
    1.7599   -0.7691   -1.8765 H   0  0  0  0  0  0
  1  2  1  0  0  0
  1 16  1  0  0  0
  1 17  1  0  0  0
  1 18  1  0  0  0
  2  3  1  0  0  0
  2 19  1  0  0  0
  2 20  1  0  0  0
  3  4  1  0  0  0
  3 21  1  0  0  0
  3 22  1  0  0  0
  4  5  1  0  0  0
  4 23  1  0  0  0
  4 24  1  0  0  0
  5  6  1  0  0  0
  5 25  1  0  0  0
  5 26  1  0  0  0
  6  7  1  0  0  0
  6 27  1  0  0  0
  6 39  1  0  0  0
  7  8  1  0  0  0
  7 28  1  0  0  0
  7 29  1  0  0  0
  8 30  1  0  0  0
  8 31  1  0  0  0
  8 32  1  0  0  0
  9 10  1  0  0  0
  9 11  1  0  0  0
  9 33  1  0  0  0
  9 39  1  0  0  0
 10 34  1  0  0  0
 10 35  1  0  0  0
 10 36  1  0  0  0
 11 12  2  0  0  0
 11 15  1  0  0  0
 12 13  1  0  0  0
 12 37  1  0  0  0
 13 14  2  0  0  0
 13 38  1  0  0  0
 14 15  1  0  0  0
 39 40  1  0  0  0
 39 41  1  0  0  0
M  CHG  1  39   1
M  END
> <energy>
4.58543

> <chiral flag>
0

> <version>
0

> <i_ionizer_Ion_state_n>
1

> <i_ionizer_Tot_Q>
1

> <s_ionizer_Ion_centers>
39

> <s_ionizer_Ion_types>
N5

> <s_ionizer_Ion_ctrs_in>
9

> <r_ionizer_Ionization_penalty>
0.000148807

> <r_ionizer_Ionization_penalty_charging>
0.000148807

> <r_ionizer_Ionization_penalty_neutral>
0

$$$$
ZINC001258436784
                    3D
 Structure written by MMmdl.
 42 42  0  0  1  0            999 V2000
   -3.4255    1.5523   -1.9922 C   0  0  0  0  0  0
   -4.0639    0.5205   -1.0758 C   0  0  0  0  0  0
   -3.0559   -0.5269   -0.5976 C   0  0  0  0  0  0
   -2.1847   -0.0286    0.5626 C   0  0  0  0  0  0
   -1.0687   -1.0249    0.9183 C   0  0  0  0  0  0
    0.1609   -0.9619   -0.0281 C   0  0  2  0  0  0
    1.0537   -2.2142    0.1472 C   0  0  0  0  0  0
    0.4447   -3.4613   -0.4836 C   0  0  0  0  0  0
    1.7013    0.4554    1.3561 C   0  0  0  0  0  0
    2.4232    1.7663    1.0682 C   0  0  1  0  0  0
    3.5921    2.0315    2.0031 C   0  0  0  0  0  0
    2.8224    1.5927   -0.3917 C   0  0  1  0  0  0
    3.9998    0.9070   -0.4578 F   0  0  0  0  0  0
    1.7221    0.7070   -0.9848 C   0  0  0  0  0  0
   -3.0069    1.0736   -2.8830 H   0  0  0  0  0  0
   -2.6198    2.0966   -1.4914 H   0  0  0  0  0  0
   -4.1693    2.2819   -2.3225 H   0  0  0  0  0  0
   -4.5357    1.0193   -0.2231 H   0  0  0  0  0  0
   -4.8644    0.0175   -1.6334 H   0  0  0  0  0  0
   -3.6127   -1.4102   -0.2592 H   0  0  0  0  0  0
   -2.4408   -0.8482   -1.4447 H   0  0  0  0  0  0
   -1.7608    0.9578    0.3484 H   0  0  0  0  0  0
   -2.8317    0.0916    1.4409 H   0  0  0  0  0  0
   -1.4993   -2.0313    0.9252 H   0  0  0  0  0  0
   -0.7477   -0.8349    1.9507 H   0  0  0  0  0  0
   -0.2204   -0.9714   -1.0580 H   0  0  0  0  0  0
    1.2416   -2.4055    1.2100 H   0  0  0  0  0  0
    2.0283   -2.0557   -0.3259 H   0  0  0  0  0  0
    1.1590   -4.2899   -0.4399 H   0  0  0  0  0  0
    0.1968   -3.2870   -1.5366 H   0  0  0  0  0  0
   -0.4642   -3.7794    0.0358 H   0  0  0  0  0  0
    1.1042    0.5244    2.2692 H   0  0  0  0  0  0
    2.4247   -0.3584    1.4666 H   0  0  0  0  0  0
    1.7096    2.5987    1.1477 H   0  0  0  0  0  0
    4.3183    1.2118    1.9878 H   0  0  0  0  0  0
    4.1186    2.9499    1.7229 H   0  0  0  0  0  0
    3.2437    2.1477    3.0349 H   0  0  0  0  0  0
    2.9487    2.5439   -0.9177 H   0  0  0  0  0  0
    2.1744   -0.1456   -1.5052 H   0  0  0  0  0  0
    1.1139    1.2708   -1.6985 H   0  0  0  0  0  0
    0.8524    0.3875    0.1491 N   0  3  1  0  0  0
    0.1213    1.1048    0.2211 H   0  0  0  0  0  0
  1  2  1  0  0  0
  1 15  1  0  0  0
  1 16  1  0  0  0
  1 17  1  0  0  0
  2  3  1  0  0  0
  2 18  1  0  0  0
  2 19  1  0  0  0
  3  4  1  0  0  0
  3 20  1  0  0  0
  3 21  1  0  0  0
  4  5  1  0  0  0
  4 22  1  0  0  0
  4 23  1  0  0  0
  5  6  1  0  0  0
  5 24  1  0  0  0
  5 25  1  0  0  0
  6  7  1  0  0  0
  6 26  1  0  0  0
  6 41  1  0  0  0
  7  8  1  0  0  0
  7 27  1  0  0  0
  7 28  1  0  0  0
  8 29  1  0  0  0
  8 30  1  0  0  0
  8 31  1  0  0  0
  9 10  1  0  0  0
  9 32  1  0  0  0
  9 33  1  0  0  0
  9 41  1  0  0  0
 10 11  1  0  0  0
 10 12  1  0  0  0
 10 34  1  0  0  0
 11 35  1  0  0  0
 11 36  1  0  0  0
 11 37  1  0  0  0
 12 13  1  0  0  0
 12 14  1  0  0  0
 12 38  1  0  0  0
 14 39  1  0  0  0
 14 40  1  0  0  0
 14 41  1  0  0  0
 41 42  1  0  0  0
M  CHG  1  41   1
M  END
> <energy>
32.0817

> <chiral flag>
0

> <version>
0

> <i_ionizer_Ion_state_n>
1

> <i_ionizer_Tot_Q>
1

> <s_ionizer_Ion_centers>
41

> <s_ionizer_Ion_types>
N5

> <s_ionizer_Ion_ctrs_in>
9

> <r_ionizer_Ionization_penalty>
0.00148639

> <r_ionizer_Ionization_penalty_charging>
0.00148639

> <r_ionizer_Ionization_penalty_neutral>
0

$$$$
ZINC001258436785
                    3D
 Structure written by MMmdl.
 42 42  0  0  1  0            999 V2000
   -3.5830   -2.4535   -1.0337 C   0  0  0  0  0  0
   -2.5563   -1.9909   -0.0134 C   0  0  0  0  0  0
   -2.7634   -0.5249    0.3715 C   0  0  0  0  0  0
   -1.7047   -0.0516    1.3772 C   0  0  0  0  0  0
   -1.0064    1.2476    0.9509 C   0  0  0  0  0  0
   -0.0210    1.1128   -0.2509 C   0  0  1  0  0  0
   -0.1123    2.3978   -1.1204 C   0  0  0  0  0  0
   -1.4106    2.4960   -1.9160 C   0  0  0  0  0  0
    1.5889   -0.3229    0.9941 C   0  0  0  0  0  0
    3.1090   -0.3577    1.0927 C   0  0  1  0  0  0
    3.6589   -1.6805    1.5945 C   0  0  0  0  0  0
    3.5210   -0.0086   -0.3260 C   0  0  1  0  0  0
    3.5485   -1.1376   -1.0888 F   0  0  0  0  0  0
    2.3891    0.8883   -0.8367 C   0  0  0  0  0  0
   -3.3915   -3.4929   -1.3187 H   0  0  0  0  0  0
   -4.5967   -2.3925   -0.6277 H   0  0  0  0  0  0
   -3.5387   -1.8378   -1.9365 H   0  0  0  0  0  0
   -1.5506   -2.1248   -0.4324 H   0  0  0  0  0  0
   -2.6222   -2.6232    0.8811 H   0  0  0  0  0  0
   -3.7562   -0.4132    0.8234 H   0  0  0  0  0  0
   -2.7645    0.0960   -0.5296 H   0  0  0  0  0  0
   -2.2080    0.1355    2.3363 H   0  0  0  0  0  0
   -0.9755   -0.8413    1.5759 H   0  0  0  0  0  0
   -1.7856    1.9914    0.7471 H   0  0  0  0  0  0
   -0.4636    1.6490    1.8183 H   0  0  0  0  0  0
   -0.3111    0.2577   -0.8745 H   0  0  0  0  0  0
    0.6954    2.4372   -1.8565 H   0  0  0  0  0  0
   -0.0003    3.2898   -0.4910 H   0  0  0  0  0  0
   -2.2795    2.6386   -1.2677 H   0  0  0  0  0  0
   -1.3694    3.3512   -2.6005 H   0  0  0  0  0  0
   -1.5714    1.5932   -2.5160 H   0  0  0  0  0  0
    1.1470   -0.2832    1.9939 H   0  0  0  0  0  0
    1.2061   -1.2022    0.4582 H   0  0  0  0  0  0
    3.4420    0.4424    1.7717 H   0  0  0  0  0  0
    4.7524   -1.6705    1.5841 H   0  0  0  0  0  0
    3.3275   -1.8707    2.6208 H   0  0  0  0  0  0
    3.3267   -2.5212    0.9735 H   0  0  0  0  0  0
    4.5027    0.4684   -0.3797 H   0  0  0  0  0  0
    2.7604    1.9060   -0.9974 H   0  0  0  0  0  0
    2.0013    0.4899   -1.7825 H   0  0  0  0  0  0
    1.4101    0.9297    0.2593 N   0  3  1  0  0  0
    1.6286    1.7185    0.8792 H   0  0  0  0  0  0
  1  2  1  0  0  0
  1 15  1  0  0  0
  1 16  1  0  0  0
  1 17  1  0  0  0
  2  3  1  0  0  0
  2 18  1  0  0  0
  2 19  1  0  0  0
  3  4  1  0  0  0
  3 20  1  0  0  0
  3 21  1  0  0  0
  4  5  1  0  0  0
  4 22  1  0  0  0
  4 23  1  0  0  0
  5  6  1  0  0  0
  5 24  1  0  0  0
  5 25  1  0  0  0
  6  7  1  0  0  0
  6 26  1  0  0  0
  6 41  1  0  0  0
  7  8  1  0  0  0
  7 27  1  0  0  0
  7 28  1  0  0  0
  8 29  1  0  0  0
  8 30  1  0  0  0
  8 31  1  0  0  0
  9 10  1  0  0  0
  9 32  1  0  0  0
  9 33  1  0  0  0
  9 41  1  0  0  0
 10 11  1  0  0  0
 10 12  1  0  0  0
 10 34  1  0  0  0
 11 35  1  0  0  0
 11 36  1  0  0  0
 11 37  1  0  0  0
 12 13  1  0  0  0
 12 14  1  0  0  0
 12 38  1  0  0  0
 14 39  1  0  0  0
 14 40  1  0  0  0
 14 41  1  0  0  0
 41 42  1  0  0  0
M  CHG  1  41   1
M  END
> <energy>
36.0234

> <chiral flag>
0

> <version>
0

> <i_ionizer_Ion_state_n>
1

> <i_ionizer_Tot_Q>
1

> <s_ionizer_Ion_centers>
41

> <s_ionizer_Ion_types>
N5

> <s_ionizer_Ion_ctrs_in>
9

> <r_ionizer_Ionization_penalty>
0.00148639

> <r_ionizer_Ionization_penalty_charging>
0.00148639

> <r_ionizer_Ionization_penalty_neutral>
0

$$$$
ZINC001258436816
                    3D
 Structure written by MMmdl.
 49 49  0  0  1  0            999 V2000
   -3.0612   -3.5156   -0.0447 C   0  0  0  0  0  0
   -3.5634   -2.0912    0.1334 C   0  0  0  0  0  0
   -2.4008   -1.1085    0.2992 C   0  0  0  0  0  0
   -2.9102    0.3071    0.5448 C   0  0  0  0  0  0
   -1.8469    1.3126    1.0046 C   0  0  0  0  0  0
   -0.7421    1.6623   -0.0299 C   0  0  1  0  0  0
   -0.3258    3.1543    0.0852 C   0  0  0  0  0  0
   -1.3862    4.1278   -0.4218 C   0  0  0  0  0  0
    1.0098    0.5455    1.3727 C   0  0  0  0  0  0
    2.5171    0.2694    1.4583 C   0  0  0  0  0  0
    2.9491   -1.0177    0.7567 C   0  0  0  0  0  0
    3.1790   -0.8892   -0.7596 C   0  0  2  0  0  0
    3.2482   -2.2951   -1.3741 C   0  0  0  0  0  0
    4.4792   -0.3130   -0.9705 O   0  0  0  0  0  0
    2.1600   -0.0254   -1.5192 C   0  0  0  0  0  0
    0.7247   -0.1006   -0.9989 C   0  0  0  0  0  0
   -3.9049   -4.1989   -0.1823 H   0  0  0  0  0  0
   -2.4979   -3.8434    0.8358 H   0  0  0  0  0  0
   -2.4083   -3.5954   -0.9202 H   0  0  0  0  0  0
   -4.1698   -1.8065   -0.7353 H   0  0  0  0  0  0
   -4.2175   -2.0512    1.0127 H   0  0  0  0  0  0
   -1.7981   -1.1281   -0.6125 H   0  0  0  0  0  0
   -1.7632   -1.4288    1.1308 H   0  0  0  0  0  0
   -3.6830    0.2723    1.3250 H   0  0  0  0  0  0
   -3.4054    0.6828   -0.3585 H   0  0  0  0  0  0
   -2.3941    2.2243    1.2707 H   0  0  0  0  0  0
   -1.4260    0.9688    1.9541 H   0  0  0  0  0  0
   -1.1779    1.5550   -1.0315 H   0  0  0  0  0  0
    0.5788    3.3289   -0.5136 H   0  0  0  0  0  0
   -0.0712    3.4066    1.1225 H   0  0  0  0  0  0
   -1.6931    3.8790   -1.4423 H   0  0  0  0  0  0
   -2.2752    4.1360    0.2130 H   0  0  0  0  0  0
   -0.9804    5.1451   -0.4328 H   0  0  0  0  0  0
    0.4611   -0.3200    1.7647 H   0  0  0  0  0  0
    0.8220    1.3760    2.0646 H   0  0  0  0  0  0
    3.0887    1.1305    1.0943 H   0  0  0  0  0  0
    2.7634    0.1657    2.5245 H   0  0  0  0  0  0
    3.8903   -1.3462    1.2202 H   0  0  0  0  0  0
    2.2105   -1.8019    0.9682 H   0  0  0  0  0  0
    4.0332   -2.8915   -0.8944 H   0  0  0  0  0  0
    2.2973   -2.8290   -1.2772 H   0  0  0  0  0  0
    3.5106   -2.2476   -2.4378 H   0  0  0  0  0  0
    4.4652    0.5892   -0.6101 H   0  0  0  0  0  0
    2.1628   -0.3150   -2.5789 H   0  0  0  0  0  0
    2.4888    1.0246   -1.5348 H   0  0  0  0  0  0
    0.4652   -1.1101   -0.6624 H   0  0  0  0  0  0
    0.0747    0.1067   -1.8574 H   0  0  0  0  0  0
    0.6259    1.0041   -0.0006 N   0  3  1  0  0  0
    1.3082    1.7201   -0.2766 H   0  0  0  0  0  0
  1  2  1  0  0  0
  1 17  1  0  0  0
  1 18  1  0  0  0
  1 19  1  0  0  0
  2  3  1  0  0  0
  2 20  1  0  0  0
  2 21  1  0  0  0
  3  4  1  0  0  0
  3 22  1  0  0  0
  3 23  1  0  0  0
  4  5  1  0  0  0
  4 24  1  0  0  0
  4 25  1  0  0  0
  5  6  1  0  0  0
  5 26  1  0  0  0
  5 27  1  0  0  0
  6  7  1  0  0  0
  6 28  1  0  0  0
  6 48  1  0  0  0
  7  8  1  0  0  0
  7 29  1  0  0  0
  7 30  1  0  0  0
  8 31  1  0  0  0
  8 32  1  0  0  0
  8 33  1  0  0  0
  9 10  1  0  0  0
  9 34  1  0  0  0
  9 35  1  0  0  0
  9 48  1  0  0  0
 10 11  1  0  0  0
 10 36  1  0  0  0
 10 37  1  0  0  0
 11 12  1  0  0  0
 11 38  1  0  0  0
 11 39  1  0  0  0
 12 13  1  0  0  0
 12 14  1  0  0  0
 12 15  1  0  0  0
 13 40  1  0  0  0
 13 41  1  0  0  0
 13 42  1  0  0  0
 14 43  1  0  0  0
 15 16  1  0  0  0
 15 44  1  0  0  0
 15 45  1  0  0  0
 16 46  1  0  0  0
 16 47  1  0  0  0
 16 48  1  0  0  0
 48 49  1  0  0  0
M  CHG  1  48   1
M  END
> <energy>
34.7652

> <chiral flag>
0

> <version>
0

> <i_ionizer_Ion_state_n>
1

> <i_ionizer_Tot_Q>
1

> <s_ionizer_Ion_centers>
48

> <s_ionizer_Ion_types>
N5

> <s_ionizer_Ion_ctrs_in>
9

> <r_ionizer_Ionization_penalty>
0.00148639

> <r_ionizer_Ionization_penalty_charging>
0.00148639

> <r_ionizer_Ionization_penalty_neutral>
0

$$$$
ZINC001258436818
                    3D
 Structure written by MMmdl.
 49 49  0  0  1  0            999 V2000
   -2.2911   -2.2839    1.0390 C   0  0  0  0  0  0
   -3.1053   -1.0359    0.7541 C   0  0  0  0  0  0
   -3.2958   -0.7731   -0.7392 C   0  0  0  0  0  0
   -2.0307   -0.6155   -1.5968 C   0  0  0  0  0  0
   -1.3481    0.7749   -1.5291 C   0  0  0  0  0  0
   -0.6168    1.2634   -0.2498 C   0  0  2  0  0  0
   -0.5738    2.8034   -0.2395 C   0  0  0  0  0  0
   -1.8269    3.3338    0.4657 C   0  0  0  0  0  0
    1.1380    0.8476    1.3750 C   0  0  0  0  0  0
    1.4068   -0.5216    1.9677 C   0  0  0  0  0  0
    2.7071   -1.1296    1.4553 C   0  0  0  0  0  0
    2.9125   -1.2197   -0.0849 C   0  0  2  0  0  0
    1.8142   -2.0111   -0.8309 C   0  0  0  0  0  0
    4.1500   -1.9420   -0.2163 O   0  0  0  0  0  0
    3.1051    0.1609   -0.7088 C   0  0  0  0  0  0
    1.8008    0.9740   -0.9607 C   0  0  0  0  0  0
   -2.2203   -2.4544    2.1174 H   0  0  0  0  0  0
   -1.2753   -2.2045    0.6415 H   0  0  0  0  0  0
   -2.7615   -3.1638    0.5897 H   0  0  0  0  0  0
   -4.0993   -1.1604    1.2054 H   0  0  0  0  0  0
   -2.6505   -0.1836    1.2613 H   0  0  0  0  0  0
   -3.8724   -1.6145   -1.1483 H   0  0  0  0  0  0
   -3.9324    0.1112   -0.8679 H   0  0  0  0  0  0
   -2.3937   -0.6922   -2.6384 H   0  0  0  0  0  0
   -1.3499   -1.4668   -1.4958 H   0  0  0  0  0  0
   -0.6552    0.8296   -2.3785 H   0  0  0  0  0  0
   -2.1527    1.4989   -1.7601 H   0  0  0  0  0  0
   -1.2525    0.9804    0.6054 H   0  0  0  0  0  0
   -0.4837    3.2036   -1.2609 H   0  0  0  0  0  0
    0.2861    3.1642    0.3421 H   0  0  0  0  0  0
   -1.8869    4.4130    0.3104 H   0  0  0  0  0  0
   -2.7355    2.8567    0.0766 H   0  0  0  0  0  0
   -1.8169    3.1199    1.5424 H   0  0  0  0  0  0
    2.0129    1.5063    1.4549 H   0  0  0  0  0  0
    0.3455    1.3448    1.9689 H   0  0  0  0  0  0
    1.4301   -0.4321    3.0573 H   0  0  0  0  0  0
    0.5661   -1.1805    1.7598 H   0  0  0  0  0  0
    2.8394   -2.1284    1.9044 H   0  0  0  0  0  0
    3.5423   -0.5360    1.8633 H   0  0  0  0  0  0
    1.6476   -1.5851   -1.8363 H   0  0  0  0  0  0
    2.0814   -3.0663   -0.9973 H   0  0  0  0  0  0
    0.8574   -1.9743   -0.3183 H   0  0  0  0  0  0
    4.3431   -2.0882   -1.1737 H   0  0  0  0  0  0
    3.6025    0.0436   -1.6839 H   0  0  0  0  0  0
    3.8210    0.7477   -0.1167 H   0  0  0  0  0  0
    1.4705    0.7679   -1.9979 H   0  0  0  0  0  0
    2.0375    2.0383   -0.9123 H   0  0  0  0  0  0
    0.7057    0.5794    0.0022 N   0  3  2  0  0  0
    0.5554   -0.4313   -0.0989 H   0  0  0  0  0  0
  1  2  1  0  0  0
  1 17  1  0  0  0
  1 18  1  0  0  0
  1 19  1  0  0  0
  2  3  1  0  0  0
  2 20  1  0  0  0
  2 21  1  0  0  0
  3  4  1  0  0  0
  3 22  1  0  0  0
  3 23  1  0  0  0
  4  5  1  0  0  0
  4 24  1  0  0  0
  4 25  1  0  0  0
  5  6  1  0  0  0
  5 26  1  0  0  0
  5 27  1  0  0  0
  6  7  1  0  0  0
  6 28  1  0  0  0
  6 48  1  0  0  0
  7  8  1  0  0  0
  7 29  1  0  0  0
  7 30  1  0  0  0
  8 31  1  0  0  0
  8 32  1  0  0  0
  8 33  1  0  0  0
  9 10  1  0  0  0
  9 34  1  0  0  0
  9 35  1  0  0  0
  9 48  1  0  0  0
 10 11  1  0  0  0
 10 36  1  0  0  0
 10 37  1  0  0  0
 11 12  1  0  0  0
 11 38  1  0  0  0
 11 39  1  0  0  0
 12 13  1  0  0  0
 12 14  1  0  0  0
 12 15  1  0  0  0
 13 40  1  0  0  0
 13 41  1  0  0  0
 13 42  1  0  0  0
 14 43  1  0  0  0
 15 16  1  0  0  0
 15 44  1  0  0  0
 15 45  1  0  0  0
 16 46  1  0  0  0
 16 47  1  0  0  0
 16 48  1  0  0  0
 48 49  1  0  0  0
M  CHG  1  48   1
M  END
> <energy>
44.4292

> <chiral flag>
0

> <version>
0

> <i_ionizer_Ion_state_n>
1

> <i_ionizer_Tot_Q>
1

> <s_ionizer_Ion_centers>
48

> <s_ionizer_Ion_types>
N5

> <s_ionizer_Ion_ctrs_in>
9

> <r_ionizer_Ionization_penalty>
0.00148639

> <r_ionizer_Ionization_penalty_charging>
0.00148639

> <r_ionizer_Ionization_penalty_neutral>
0

$$$$
ZINC001258436819
                    3D
 Structure written by MMmdl.
 49 49  0  0  1  0            999 V2000
   -4.8391    0.0258    0.4722 C   0  0  0  0  0  0
   -4.2141   -0.4859   -0.8166 C   0  0  0  0  0  0
   -3.5994    0.6190   -1.6797 C   0  0  0  0  0  0
   -2.4563    1.4120   -1.0339 C   0  0  0  0  0  0
   -1.2731    0.5289   -0.6311 C   0  0  0  0  0  0
    0.0172    1.3054   -0.2527 C   0  0  1  0  0  0
   -0.1553    2.2399    0.9704 C   0  0  0  0  0  0
   -0.5121    3.6733    0.5907 C   0  0  0  0  0  0
    2.4223    0.8786   -0.3675 C   0  0  0  0  0  0
    3.6289   -0.0273   -0.1008 C   0  0  0  0  0  0
    3.4424   -1.4758   -0.5572 C   0  0  0  0  0  0
    2.7085   -2.3896    0.4453 C   0  0  1  0  0  0
    2.6816   -3.8195   -0.1181 C   0  0  0  0  0  0
    3.4779   -2.4775    1.6542 O   0  0  0  0  0  0
    1.2689   -1.9723    0.7934 C   0  0  0  0  0  0
    1.0419   -0.4969    1.1374 C   0  0  0  0  0  0
   -5.5657    0.8195    0.2710 H   0  0  0  0  0  0
   -5.3624   -0.7885    0.9835 H   0  0  0  0  0  0
   -4.0816    0.4152    1.1589 H   0  0  0  0  0  0
   -4.9935   -0.9873   -1.4039 H   0  0  0  0  0  0
   -3.4671   -1.2528   -0.5832 H   0  0  0  0  0  0
   -4.3880    1.3222   -1.9719 H   0  0  0  0  0  0
   -3.2340    0.1652   -2.6086 H   0  0  0  0  0  0
   -2.8372    1.9510   -0.1611 H   0  0  0  0  0  0
   -2.1191    2.1664   -1.7554 H   0  0  0  0  0  0
   -1.5872   -0.1128    0.2006 H   0  0  0  0  0  0
   -1.0406   -0.1409   -1.4718 H   0  0  0  0  0  0
    0.2670    1.9178   -1.1303 H   0  0  0  0  0  0
    0.7772    2.2951    1.5458 H   0  0  0  0  0  0
   -0.9120    1.8428    1.6581 H   0  0  0  0  0  0
   -1.4736    3.7410    0.0797 H   0  0  0  0  0  0
    0.2537    4.1037   -0.0621 H   0  0  0  0  0  0
   -0.5691    4.2958    1.4903 H   0  0  0  0  0  0
    2.5788    1.8090    0.1941 H   0  0  0  0  0  0
    2.4475    1.1524   -1.4304 H   0  0  0  0  0  0
    4.4835    0.3970   -0.6445 H   0  0  0  0  0  0
    3.9040    0.0171    0.9576 H   0  0  0  0  0  0
    2.9439   -1.4986   -1.5345 H   0  0  0  0  0  0
    4.4505   -1.8865   -0.7107 H   0  0  0  0  0  0
    2.2124   -4.5096    0.5923 H   0  0  0  0  0  0
    3.6977   -4.1955   -0.2842 H   0  0  0  0  0  0
    2.1343   -3.8724   -1.0649 H   0  0  0  0  0  0
    3.4192   -1.6322    2.1253 H   0  0  0  0  0  0
    0.9367   -2.5609    1.6596 H   0  0  0  0  0  0
    0.5972   -2.2400   -0.0344 H   0  0  0  0  0  0
    0.0505   -0.4382    1.5991 H   0  0  0  0  0  0
    1.7327   -0.1422    1.9101 H   0  0  0  0  0  0
    1.0918    0.2615   -0.1660 N   0  3  1  0  0  0
    0.9364   -0.4123   -0.9250 H   0  0  0  0  0  0
  1  2  1  0  0  0
  1 17  1  0  0  0
  1 18  1  0  0  0
  1 19  1  0  0  0
  2  3  1  0  0  0
  2 20  1  0  0  0
  2 21  1  0  0  0
  3  4  1  0  0  0
  3 22  1  0  0  0
  3 23  1  0  0  0
  4  5  1  0  0  0
  4 24  1  0  0  0
  4 25  1  0  0  0
  5  6  1  0  0  0
  5 26  1  0  0  0
  5 27  1  0  0  0
  6  7  1  0  0  0
  6 28  1  0  0  0
  6 48  1  0  0  0
  7  8  1  0  0  0
  7 29  1  0  0  0
  7 30  1  0  0  0
  8 31  1  0  0  0
  8 32  1  0  0  0
  8 33  1  0  0  0
  9 10  1  0  0  0
  9 34  1  0  0  0
  9 35  1  0  0  0
  9 48  1  0  0  0
 10 11  1  0  0  0
 10 36  1  0  0  0
 10 37  1  0  0  0
 11 12  1  0  0  0
 11 38  1  0  0  0
 11 39  1  0  0  0
 12 13  1  0  0  0
 12 14  1  0  0  0
 12 15  1  0  0  0
 13 40  1  0  0  0
 13 41  1  0  0  0
 13 42  1  0  0  0
 14 43  1  0  0  0
 15 16  1  0  0  0
 15 44  1  0  0  0
 15 45  1  0  0  0
 16 46  1  0  0  0
 16 47  1  0  0  0
 16 48  1  0  0  0
 48 49  1  0  0  0
M  CHG  1  48   1
M  END
> <energy>
30.7169

> <chiral flag>
0

> <version>
0

> <i_ionizer_Ion_state_n>
1

> <i_ionizer_Tot_Q>
1

> <s_ionizer_Ion_centers>
48

> <s_ionizer_Ion_types>
N5

> <s_ionizer_Ion_ctrs_in>
9

> <r_ionizer_Ionization_penalty>
0.00148639

> <r_ionizer_Ionization_penalty_charging>
0.00148639

> <r_ionizer_Ionization_penalty_neutral>
0

$$$$
ZINC001258436821
                    3D
 Structure written by MMmdl.
 49 49  0  0  1  0            999 V2000
   -3.1184   -2.7463   -0.7748 C   0  0  0  0  0  0
   -4.1729   -1.9244   -0.0524 C   0  0  0  0  0  0
   -3.6731   -0.5755    0.4772 C   0  0  0  0  0  0
   -3.3030    0.4345   -0.6192 C   0  0  0  0  0  0
   -1.8132    0.4612   -0.9823 C   0  0  0  0  0  0
   -0.9025    1.1201    0.0822 C   0  0  2  0  0  0
   -1.0140    2.6664    0.0403 C   0  0  0  0  0  0
   -0.1867    3.3587    1.1196 C   0  0  0  0  0  0
    1.0889    0.8272   -1.3644 C   0  0  0  0  0  0
    2.6181    0.8402   -1.3799 C   0  0  0  0  0  0
    3.2838   -0.4447   -0.8863 C   0  0  0  0  0  0
    3.3553   -0.5967    0.6418 C   0  0  1  0  0  0
    4.1958   -1.8426    0.9720 C   0  0  0  0  0  0
    4.1082    0.5188    1.1467 O   0  0  0  0  0  0
    2.0027   -0.6697    1.3865 C   0  0  0  0  0  0
    0.7303   -0.6442    0.5386 C   0  0  0  0  0  0
   -2.2311   -2.8922   -0.1511 H   0  0  0  0  0  0
   -2.8162   -2.2694   -1.7116 H   0  0  0  0  0  0
   -3.5244   -3.7320   -1.0292 H   0  0  0  0  0  0
   -4.5552   -2.5095    0.7944 H   0  0  0  0  0  0
   -5.0226   -1.7609   -0.7247 H   0  0  0  0  0  0
   -4.4946   -0.1415    1.0630 H   0  0  0  0  0  0
   -2.8494   -0.7350    1.1795 H   0  0  0  0  0  0
   -3.6204    1.4329   -0.2984 H   0  0  0  0  0  0
   -3.8796    0.2135   -1.5254 H   0  0  0  0  0  0
   -1.4808   -0.5599   -1.1841 H   0  0  0  0  0  0
   -1.7081    1.0061   -1.9287 H   0  0  0  0  0  0
   -1.2638    0.8400    1.0803 H   0  0  0  0  0  0
   -0.7158    3.0552   -0.9406 H   0  0  0  0  0  0
   -2.0597    2.9645    0.1765 H   0  0  0  0  0  0
   -0.4572    2.9940    2.1167 H   0  0  0  0  0  0
    0.8844    3.1921    0.9695 H   0  0  0  0  0  0
   -0.3642    4.4392    1.0915 H   0  0  0  0  0  0
    0.7225    0.0366   -2.0329 H   0  0  0  0  0  0
    0.7758    1.7757   -1.8188 H   0  0  0  0  0  0
    2.9863    1.7096   -0.8235 H   0  0  0  0  0  0
    2.9273    0.9931   -2.4231 H   0  0  0  0  0  0
    4.3133   -0.4195   -1.2699 H   0  0  0  0  0  0
    2.8053   -1.3181   -1.3446 H   0  0  0  0  0  0
    3.7334   -2.7563    0.5852 H   0  0  0  0  0  0
    5.2040   -1.7583    0.5513 H   0  0  0  0  0  0
    4.3303   -1.9534    2.0542 H   0  0  0  0  0  0
    4.0975    0.4804    2.1184 H   0  0  0  0  0  0
    1.9634   -1.5948    1.9783 H   0  0  0  0  0  0
    1.9386    0.1354    2.1306 H   0  0  0  0  0  0
    0.7388   -1.4290   -0.2264 H   0  0  0  0  0  0
   -0.0912   -0.9155    1.2189 H   0  0  0  0  0  0
    0.5513    0.7287    0.0219 N   0  3  2  0  0  0
    1.0826    1.3735    0.6187 H   0  0  0  0  0  0
  1  2  1  0  0  0
  1 17  1  0  0  0
  1 18  1  0  0  0
  1 19  1  0  0  0
  2  3  1  0  0  0
  2 20  1  0  0  0
  2 21  1  0  0  0
  3  4  1  0  0  0
  3 22  1  0  0  0
  3 23  1  0  0  0
  4  5  1  0  0  0
  4 24  1  0  0  0
  4 25  1  0  0  0
  5  6  1  0  0  0
  5 26  1  0  0  0
  5 27  1  0  0  0
  6  7  1  0  0  0
  6 28  1  0  0  0
  6 48  1  0  0  0
  7  8  1  0  0  0
  7 29  1  0  0  0
  7 30  1  0  0  0
  8 31  1  0  0  0
  8 32  1  0  0  0
  8 33  1  0  0  0
  9 10  1  0  0  0
  9 34  1  0  0  0
  9 35  1  0  0  0
  9 48  1  0  0  0
 10 11  1  0  0  0
 10 36  1  0  0  0
 10 37  1  0  0  0
 11 12  1  0  0  0
 11 38  1  0  0  0
 11 39  1  0  0  0
 12 13  1  0  0  0
 12 14  1  0  0  0
 12 15  1  0  0  0
 13 40  1  0  0  0
 13 41  1  0  0  0
 13 42  1  0  0  0
 14 43  1  0  0  0
 15 16  1  0  0  0
 15 44  1  0  0  0
 15 45  1  0  0  0
 16 46  1  0  0  0
 16 47  1  0  0  0
 16 48  1  0  0  0
 48 49  1  0  0  0
M  CHG  1  48   1
M  END
> <energy>
34.1172

> <chiral flag>
0

> <version>
0

> <i_ionizer_Ion_state_n>
1

> <i_ionizer_Tot_Q>
1

> <s_ionizer_Ion_centers>
48

> <s_ionizer_Ion_types>
N5

> <s_ionizer_Ion_ctrs_in>
9

> <r_ionizer_Ionization_penalty>
0.00148639

> <r_ionizer_Ionization_penalty_charging>
0.00148639

> <r_ionizer_Ionization_penalty_neutral>
0

$$$$
ZINC001258436835
                    3D
 Structure written by MMmdl.
 49 49  0  0  1  0            999 V2000
   -0.5174   -3.7779    0.3910 C   0  0  0  0  0  0
   -1.3890   -2.8908    1.2704 C   0  0  0  0  0  0
   -2.6194   -2.3406    0.5327 C   0  0  0  0  0  0
   -2.3159   -1.0895   -0.3026 C   0  0  0  0  0  0
   -2.2908    0.1927    0.5454 C   0  0  0  0  0  0
   -1.6602    1.4255   -0.1542 C   0  0  2  0  0  0
   -2.2431    1.7157   -1.5570 C   0  0  0  0  0  0
   -3.7308    2.0492   -1.5475 C   0  0  0  0  0  0
    0.4429    2.2640    0.7935 C   0  0  0  0  0  0
    1.9790    2.2084    0.7645 C   0  0  0  0  0  0
    2.4884    0.8225    0.3623 C   0  0  2  0  0  0
    4.0202    0.7653    0.3683 C   0  0  0  0  0  0
    4.5305   -0.4784   -0.1089 O   0  0  0  0  0  0
    4.3799   -1.5477    0.8133 C   0  0  0  0  0  0
    1.9111    0.4235   -1.0082 C   0  0  0  0  0  0
    0.5527    1.0681   -1.3111 C   0  0  0  0  0  0
   -1.1035   -4.5830   -0.0647 H   0  0  0  0  0  0
   -0.0421   -3.2064   -0.4113 H   0  0  0  0  0  0
    0.2751   -4.2387    0.9903 H   0  0  0  0  0  0
   -0.7805   -2.0746    1.6744 H   0  0  0  0  0  0
   -1.7294   -3.4879    2.1244 H   0  0  0  0  0  0
   -3.4003   -2.1025    1.2664 H   0  0  0  0  0  0
   -3.0347   -3.1187   -0.1230 H   0  0  0  0  0  0
   -1.3755   -1.2204   -0.8467 H   0  0  0  0  0  0
   -3.1112   -0.9852   -1.0489 H   0  0  0  0  0  0
   -1.7531    0.0129    1.4878 H   0  0  0  0  0  0
   -3.3174    0.4382    0.8504 H   0  0  0  0  0  0
   -1.9453    2.2846    0.4703 H   0  0  0  0  0  0
   -2.0893    0.8651   -2.2293 H   0  0  0  0  0  0
   -1.7175    2.5718   -1.9974 H   0  0  0  0  0  0
   -4.3355    1.2335   -1.1396 H   0  0  0  0  0  0
   -3.9275    2.9474   -0.9532 H   0  0  0  0  0  0
   -4.0788    2.2339   -2.5699 H   0  0  0  0  0  0
    0.1327    3.2795    0.5115 H   0  0  0  0  0  0
    0.1077    2.0983    1.8249 H   0  0  0  0  0  0
    2.3521    2.9531    0.0500 H   0  0  0  0  0  0
    2.3703    2.4940    1.7475 H   0  0  0  0  0  0
    2.1123    0.1009    1.0999 H   0  0  0  0  0  0
    4.4151    1.5413   -0.2998 H   0  0  0  0  0  0
    4.4175    0.9754    1.3691 H   0  0  0  0  0  0
    3.3276   -1.8162    0.9361 H   0  0  0  0  0  0
    4.9035   -2.4178    0.4073 H   0  0  0  0  0  0
    4.8245   -1.2945    1.7809 H   0  0  0  0  0  0
    2.6065    0.6875   -1.8162 H   0  0  0  0  0  0
    1.8102   -0.6692   -1.0338 H   0  0  0  0  0  0
    0.7025    2.0247   -1.8255 H   0  0  0  0  0  0
    0.0394    0.4002   -2.0081 H   0  0  0  0  0  0
   -0.1673    1.1905   -0.0034 N   0  3  2  0  0  0
   -0.0443    0.3058    0.5029 H   0  0  0  0  0  0
  1  2  1  0  0  0
  1 17  1  0  0  0
  1 18  1  0  0  0
  1 19  1  0  0  0
  2  3  1  0  0  0
  2 20  1  0  0  0
  2 21  1  0  0  0
  3  4  1  0  0  0
  3 22  1  0  0  0
  3 23  1  0  0  0
  4  5  1  0  0  0
  4 24  1  0  0  0
  4 25  1  0  0  0
  5  6  1  0  0  0
  5 26  1  0  0  0
  5 27  1  0  0  0
  6  7  1  0  0  0
  6 28  1  0  0  0
  6 48  1  0  0  0
  7  8  1  0  0  0
  7 29  1  0  0  0
  7 30  1  0  0  0
  8 31  1  0  0  0
  8 32  1  0  0  0
  8 33  1  0  0  0
  9 10  1  0  0  0
  9 34  1  0  0  0
  9 35  1  0  0  0
  9 48  1  0  0  0
 10 11  1  0  0  0
 10 36  1  0  0  0
 10 37  1  0  0  0
 11 12  1  0  0  0
 11 15  1  0  0  0
 11 38  1  0  0  0
 12 13  1  0  0  0
 12 39  1  0  0  0
 12 40  1  0  0  0
 13 14  1  0  0  0
 14 41  1  0  0  0
 14 42  1  0  0  0
 14 43  1  0  0  0
 15 16  1  0  0  0
 15 44  1  0  0  0
 15 45  1  0  0  0
 16 46  1  0  0  0
 16 47  1  0  0  0
 16 48  1  0  0  0
 48 49  1  0  0  0
M  CHG  1  48   1
M  END
> <energy>
27.3445

> <chiral flag>
0

> <version>
0

> <i_ionizer_Ion_state_n>
1

> <i_ionizer_Tot_Q>
1

> <s_ionizer_Ion_centers>
48

> <s_ionizer_Ion_types>
N5

> <s_ionizer_Ion_ctrs_in>
9

> <r_ionizer_Ionization_penalty>
0.00148639

> <r_ionizer_Ionization_penalty_charging>
0.00148639

> <r_ionizer_Ionization_penalty_neutral>
0

$$$$
ZINC001258436837
                    3D
 Structure written by MMmdl.
 49 49  0  0  1  0            999 V2000
   -4.2599    2.7592   -1.8669 C   0  0  0  0  0  0
   -3.1513    2.0911   -1.0676 C   0  0  0  0  0  0
   -3.0705    0.5826   -1.3100 C   0  0  0  0  0  0
   -1.8203   -0.0018   -0.6382 C   0  0  0  0  0  0
   -1.7514   -1.5342   -0.7407 C   0  0  0  0  0  0
   -0.3125   -2.1360   -0.7450 C   0  0  1  0  0  0
    0.1878   -2.2712   -2.2119 C   0  0  0  0  0  0
    0.3206   -0.9691   -2.9935 C   0  0  0  0  0  0
    2.0339   -1.7263   -0.0559 C   0  0  0  0  0  0
    2.9498   -1.0367    0.9647 C   0  0  0  0  0  0
    2.2432    0.1297    1.6597 C   0  0  2  0  0  0
    3.1881    0.8643    2.6151 C   0  0  0  0  0  0
    2.5459    1.8806    3.3815 O   0  0  0  0  0  0
    2.2321    3.0395    2.6263 C   0  0  0  0  0  0
    0.9758   -0.3919    2.3629 C   0  0  0  0  0  0
    0.2826   -1.5229    1.5786 C   0  0  0  0  0  0
   -5.2419    2.3526   -1.5989 H   0  0  0  0  0  0
   -4.2714    3.8354   -1.6593 H   0  0  0  0  0  0
   -4.1109    2.6366   -2.9468 H   0  0  0  0  0  0
   -3.3184    2.2740    0.0028 H   0  0  0  0  0  0
   -2.1954    2.5597   -1.3306 H   0  0  0  0  0  0
   -3.9690    0.0905   -0.9162 H   0  0  0  0  0  0
   -3.0315    0.3770   -2.3893 H   0  0  0  0  0  0
   -1.8244    0.2867    0.4210 H   0  0  0  0  0  0
   -0.9342    0.4657   -1.0798 H   0  0  0  0  0  0
   -2.2823   -1.8666   -1.6427 H   0  0  0  0  0  0
   -2.3126   -1.9630    0.0995 H   0  0  0  0  0  0
   -0.3958   -3.1693   -0.3778 H   0  0  0  0  0  0
    1.1482   -2.8020   -2.2336 H   0  0  0  0  0  0
   -0.4984   -2.9331   -2.7585 H   0  0  0  0  0  0
    0.8804   -1.1443   -3.9209 H   0  0  0  0  0  0
   -0.6672   -0.5970   -3.2851 H   0  0  0  0  0  0
    0.8396   -0.1906   -2.4246 H   0  0  0  0  0  0
    2.3539   -1.3838   -1.0473 H   0  0  0  0  0  0
    2.2104   -2.8094   -0.0139 H   0  0  0  0  0  0
    3.8563   -0.6869    0.4570 H   0  0  0  0  0  0
    3.2678   -1.7683    1.7138 H   0  0  0  0  0  0
    1.9209    0.8422    0.8903 H   0  0  0  0  0  0
    3.6123    0.1527    3.3303 H   0  0  0  0  0  0
    4.0344    1.2963    2.0646 H   0  0  0  0  0  0
    1.4119    2.8419    1.9317 H   0  0  0  0  0  0
    1.9082    3.8220    3.3172 H   0  0  0  0  0  0
    3.1065    3.4070    2.0822 H   0  0  0  0  0  0
    1.2189   -0.7647    3.3655 H   0  0  0  0  0  0
    0.2731    0.4404    2.5008 H   0  0  0  0  0  0
    0.5977   -2.4987    1.9685 H   0  0  0  0  0  0
   -0.7928   -1.4486    1.7705 H   0  0  0  0  0  0
    0.6174   -1.3426    0.1481 N   0  3  2  0  0  0
    0.5119   -0.3491   -0.0889 H   0  0  0  0  0  0
  1  2  1  0  0  0
  1 17  1  0  0  0
  1 18  1  0  0  0
  1 19  1  0  0  0
  2  3  1  0  0  0
  2 20  1  0  0  0
  2 21  1  0  0  0
  3  4  1  0  0  0
  3 22  1  0  0  0
  3 23  1  0  0  0
  4  5  1  0  0  0
  4 24  1  0  0  0
  4 25  1  0  0  0
  5  6  1  0  0  0
  5 26  1  0  0  0
  5 27  1  0  0  0
  6  7  1  0  0  0
  6 28  1  0  0  0
  6 48  1  0  0  0
  7  8  1  0  0  0
  7 29  1  0  0  0
  7 30  1  0  0  0
  8 31  1  0  0  0
  8 32  1  0  0  0
  8 33  1  0  0  0
  9 10  1  0  0  0
  9 34  1  0  0  0
  9 35  1  0  0  0
  9 48  1  0  0  0
 10 11  1  0  0  0
 10 36  1  0  0  0
 10 37  1  0  0  0
 11 12  1  0  0  0
 11 15  1  0  0  0
 11 38  1  0  0  0
 12 13  1  0  0  0
 12 39  1  0  0  0
 12 40  1  0  0  0
 13 14  1  0  0  0
 14 41  1  0  0  0
 14 42  1  0  0  0
 14 43  1  0  0  0
 15 16  1  0  0  0
 15 44  1  0  0  0
 15 45  1  0  0  0
 16 46  1  0  0  0
 16 47  1  0  0  0
 16 48  1  0  0  0
 48 49  1  0  0  0
M  CHG  1  48   1
M  END
> <energy>
26.2542

> <chiral flag>
0

> <version>
0

> <i_ionizer_Ion_state_n>
1

> <i_ionizer_Tot_Q>
1

> <s_ionizer_Ion_centers>
48

> <s_ionizer_Ion_types>
N5

> <s_ionizer_Ion_ctrs_in>
9

> <r_ionizer_Ionization_penalty>
0.00148639

> <r_ionizer_Ionization_penalty_charging>
0.00148639

> <r_ionizer_Ionization_penalty_neutral>
0

$$$$
ZINC001258436842
                    3D
 Structure written by MMmdl.
 45 46  0  0  1  0            999 V2000
    3.3268    1.9135    2.0926 C   0  0  0  0  0  0
    2.5757    0.7521    2.7356 C   0  0  0  0  0  0
    1.0699    0.8279    2.4529 C   0  0  0  0  0  0
    0.3272   -0.4298    2.9202 C   0  0  0  0  0  0
   -0.7742   -0.9253    1.9688 C   0  0  0  0  0  0
   -0.3312   -1.6160    0.6274 C   0  0  2  0  0  0
    1.1856   -1.8824    0.5032 C   0  0  0  0  0  0
    1.6104   -2.5923   -0.7776 C   0  0  0  0  0  0
   -2.2589   -1.2486   -0.8569 C   0  0  0  0  0  0
   -2.6163   -0.8844   -2.3058 C   0  0  0  0  0  0
   -2.1600    0.5023   -2.6632 C   0  0  0  0  0  0
   -2.6915    1.1943   -3.7389 C   0  0  0  0  0  0
   -2.3022    2.4424   -4.1014 N   0  0  0  0  0  0
   -1.3219    3.0091   -3.3766 C   0  0  0  0  0  0
   -0.7042    2.3974   -2.3017 C   0  0  0  0  0  0
   -1.1353    1.1154   -1.9383 C   0  0  0  0  0  0
   -0.5382    0.4508   -0.7228 C   0  0  0  0  0  0
    4.3919    1.8478    2.3375 H   0  0  0  0  0  0
    3.2255    1.8759    1.0022 H   0  0  0  0  0  0
    2.9494    2.8808    2.4462 H   0  0  0  0  0  0
    2.7576    0.7415    3.8167 H   0  0  0  0  0  0
    2.9808   -0.1830    2.3292 H   0  0  0  0  0  0
    0.6431    1.7107    2.9458 H   0  0  0  0  0  0
    0.9265    0.9983    1.3876 H   0  0  0  0  0  0
   -0.1374   -0.1994    3.8881 H   0  0  0  0  0  0
    1.0217   -1.2466    3.1354 H   0  0  0  0  0  0
   -1.4815   -0.1051    1.7883 H   0  0  0  0  0  0
   -1.3746   -1.6646    2.5230 H   0  0  0  0  0  0
   -0.7728   -2.6235    0.6576 H   0  0  0  0  0  0
    1.7560   -0.9552    0.5577 H   0  0  0  0  0  0
    1.5093   -2.5075    1.3421 H   0  0  0  0  0  0
    2.6871   -2.7893   -0.7596 H   0  0  0  0  0  0
    1.0957   -3.5461   -0.8922 H   0  0  0  0  0  0
    1.3986   -1.9867   -1.6617 H   0  0  0  0  0  0
   -2.8857   -0.6803   -0.1622 H   0  0  0  0  0  0
   -2.4901   -2.3108   -0.7189 H   0  0  0  0  0  0
   -2.1346   -1.5902   -2.9972 H   0  0  0  0  0  0
   -3.7010   -0.9886   -2.4361 H   0  0  0  0  0  0
   -3.4708    0.7619   -4.3555 H   0  0  0  0  0  0
   -1.0342    4.0101   -3.6874 H   0  0  0  0  0  0
    0.0902    2.9056   -1.7701 H   0  0  0  0  0  0
    0.5489    0.5971   -0.7631 H   0  0  0  0  0  0
   -0.9243    1.0063    0.1381 H   0  0  0  0  0  0
   -0.8113   -1.0114   -0.6676 N   0  3  1  0  0  0
   -0.3045   -1.4640   -1.4374 H   0  0  0  0  0  0
  1  2  1  0  0  0
  1 18  1  0  0  0
  1 19  1  0  0  0
  1 20  1  0  0  0
  2  3  1  0  0  0
  2 21  1  0  0  0
  2 22  1  0  0  0
  3  4  1  0  0  0
  3 23  1  0  0  0
  3 24  1  0  0  0
  4  5  1  0  0  0
  4 25  1  0  0  0
  4 26  1  0  0  0
  5  6  1  0  0  0
  5 27  1  0  0  0
  5 28  1  0  0  0
  6  7  1  0  0  0
  6 29  1  0  0  0
  6 44  1  0  0  0
  7  8  1  0  0  0
  7 30  1  0  0  0
  7 31  1  0  0  0
  8 32  1  0  0  0
  8 33  1  0  0  0
  8 34  1  0  0  0
  9 10  1  0  0  0
  9 35  1  0  0  0
  9 36  1  0  0  0
  9 44  1  0  0  0
 10 11  1  0  0  0
 10 37  1  0  0  0
 10 38  1  0  0  0
 11 12  2  0  0  0
 11 16  1  0  0  0
 12 13  1  0  0  0
 12 39  1  0  0  0
 13 14  2  0  0  0
 14 15  1  0  0  0
 14 40  1  0  0  0
 15 16  2  0  0  0
 15 41  1  0  0  0
 16 17  1  0  0  0
 17 42  1  0  0  0
 17 43  1  0  0  0
 17 44  1  0  0  0
 44 45  1  0  0  0
M  CHG  1  44   1
M  END
> <energy>
48.124

> <chiral flag>
0

> <version>
0

> <i_ionizer_Ion_state_n>
1

> <i_ionizer_Tot_Q>
1

> <s_ionizer_Ion_centers>
44

> <s_ionizer_Ion_types>
N5

> <s_ionizer_Ion_ctrs_in>
9

> <r_ionizer_Ionization_penalty>
0.00889878

> <r_ionizer_Ionization_penalty_charging>
0.00148639

> <r_ionizer_Ionization_penalty_neutral>
0.00741239

$$$$
ZINC001258436843
                    3D
 Structure written by MMmdl.
 45 46  0  0  1  0            999 V2000
   -1.6998    2.1992    2.7591 C   0  0  0  0  0  0
   -1.2106    0.7912    3.0714 C   0  0  0  0  0  0
   -2.1879   -0.3293    2.7066 C   0  0  0  0  0  0
   -2.5746   -0.4367    1.2305 C   0  0  0  0  0  0
   -1.8877   -1.5626    0.4499 C   0  0  0  0  0  0
   -0.3346   -1.5681    0.3518 C   0  0  1  0  0  0
    0.0470   -2.7789   -0.5555 C   0  0  0  0  0  0
    1.5201   -3.1407   -0.6447 C   0  0  0  0  0  0
    1.6088   -0.0489    0.3037 C   0  0  0  0  0  0
    2.0827    1.3803   -0.0002 C   0  0  0  0  0  0
    1.8594    1.6652   -1.4578 C   0  0  0  0  0  0
    2.7226    2.4491   -2.2153 C   0  0  0  0  0  0
    2.5789    2.6657   -3.5443 N   0  0  0  0  0  0
    1.5284    2.0750   -4.1490 C   0  0  0  0  0  0
    0.6044    1.2884   -3.4806 C   0  0  0  0  0  0
    0.7719    1.0792   -2.1071 C   0  0  0  0  0  0
   -0.2198    0.2199   -1.3629 C   0  0  0  0  0  0
   -1.0203    2.9359    3.2038 H   0  0  0  0  0  0
   -1.7229    2.3908    1.6839 H   0  0  0  0  0  0
   -2.6998    2.3788    3.1680 H   0  0  0  0  0  0
   -0.2465    0.6285    2.5842 H   0  0  0  0  0  0
   -1.0280    0.7306    4.1501 H   0  0  0  0  0  0
   -3.1085   -0.1755    3.2870 H   0  0  0  0  0  0
   -1.7665   -1.2825    3.0524 H   0  0  0  0  0  0
   -3.6465   -0.6765    1.2036 H   0  0  0  0  0  0
   -2.4827    0.5184    0.7077 H   0  0  0  0  0  0
   -2.1977   -2.5106    0.9168 H   0  0  0  0  0  0
   -2.3168   -1.5705   -0.5615 H   0  0  0  0  0  0
    0.0256   -1.7875    1.3656 H   0  0  0  0  0  0
   -0.4763   -3.6643   -0.1708 H   0  0  0  0  0  0
   -0.3354   -2.6308   -1.5718 H   0  0  0  0  0  0
    2.0492   -2.4690   -1.3292 H   0  0  0  0  0  0
    1.6215   -4.1505   -1.0591 H   0  0  0  0  0  0
    2.0063   -3.1385    0.3384 H   0  0  0  0  0  0
    1.7544   -0.2466    1.3724 H   0  0  0  0  0  0
    2.2715   -0.7293   -0.2353 H   0  0  0  0  0  0
    3.1491    1.4595    0.2506 H   0  0  0  0  0  0
    1.5347    2.1027    0.6155 H   0  0  0  0  0  0
    3.5992    2.9138   -1.7738 H   0  0  0  0  0  0
    1.4451    2.2421   -5.2215 H   0  0  0  0  0  0
   -0.2143    0.8311   -4.0197 H   0  0  0  0  0  0
   -1.1320    0.8175   -1.2401 H   0  0  0  0  0  0
   -0.4738   -0.6077   -2.0301 H   0  0  0  0  0  0
    0.1407   -0.1853    0.0408 N   0  3  1  0  0  0
   -0.3451    0.4572    0.6775 H   0  0  0  0  0  0
  1  2  1  0  0  0
  1 18  1  0  0  0
  1 19  1  0  0  0
  1 20  1  0  0  0
  2  3  1  0  0  0
  2 21  1  0  0  0
  2 22  1  0  0  0
  3  4  1  0  0  0
  3 23  1  0  0  0
  3 24  1  0  0  0
  4  5  1  0  0  0
  4 25  1  0  0  0
  4 26  1  0  0  0
  5  6  1  0  0  0
  5 27  1  0  0  0
  5 28  1  0  0  0
  6  7  1  0  0  0
  6 29  1  0  0  0
  6 44  1  0  0  0
  7  8  1  0  0  0
  7 30  1  0  0  0
  7 31  1  0  0  0
  8 32  1  0  0  0
  8 33  1  0  0  0
  8 34  1  0  0  0
  9 10  1  0  0  0
  9 35  1  0  0  0
  9 36  1  0  0  0
  9 44  1  0  0  0
 10 11  1  0  0  0
 10 37  1  0  0  0
 10 38  1  0  0  0
 11 12  2  0  0  0
 11 16  1  0  0  0
 12 13  1  0  0  0
 12 39  1  0  0  0
 13 14  2  0  0  0
 14 15  1  0  0  0
 14 40  1  0  0  0
 15 16  2  0  0  0
 15 41  1  0  0  0
 16 17  1  0  0  0
 17 42  1  0  0  0
 17 43  1  0  0  0
 17 44  1  0  0  0
 44 45  1  0  0  0
M  CHG  1  44   1
M  END
> <energy>
47.9769

> <chiral flag>
0

> <version>
0

> <i_ionizer_Ion_state_n>
1

> <i_ionizer_Tot_Q>
1

> <s_ionizer_Ion_centers>
44

> <s_ionizer_Ion_types>
N5

> <s_ionizer_Ion_ctrs_in>
9

> <r_ionizer_Ionization_penalty>
0.00889878

> <r_ionizer_Ionization_penalty_charging>
0.00148639

> <r_ionizer_Ionization_penalty_neutral>
0.00741239

$$$$
ZINC001258436916
                    3D
 Structure written by MMmdl.
 47 47  0  0  1  0            999 V2000
   -4.5539    0.5001   -0.9277 C   0  0  0  0  0  0
   -4.1736    0.3750    0.5388 C   0  0  0  0  0  0
   -3.2149   -0.7807    0.8366 C   0  0  0  0  0  0
   -1.8773   -0.6690    0.1011 C   0  0  0  0  0  0
   -0.8531   -1.6754    0.6472 C   0  0  0  0  0  0
    0.4921   -1.6783   -0.1311 C   0  0  2  0  0  0
    1.4415   -2.7190    0.5097 C   0  0  0  0  0  0
    2.7419   -2.9498   -0.2471 C   0  0  0  0  0  0
    1.7867   -0.0480   -1.4783 C   0  0  0  0  0  0
    1.1390    1.1203   -2.2292 C   0  0  0  0  0  0
    1.3395    2.4888   -1.5918 C   0  0  0  0  0  0
    0.9802    2.5421   -0.1194 C   0  0  0  0  0  0
    0.0030    3.1773    0.2769 O   0  0  0  0  0  0
    1.9138    1.8003    0.8255 C   0  0  1  0  0  0
    1.9655    2.4888    2.1884 C   0  0  0  0  0  0
    1.5047    0.3274    0.9650 C   0  0  0  0  0  0
   -4.9564   -0.4412   -1.3135 H   0  0  0  0  0  0
   -5.3216    1.2706   -1.0507 H   0  0  0  0  0  0
   -3.6943    0.7895   -1.5385 H   0  0  0  0  0  0
   -5.0876    0.2289    1.1267 H   0  0  0  0  0  0
   -3.7291    1.3181    0.8797 H   0  0  0  0  0  0
   -3.0339   -0.7983    1.9189 H   0  0  0  0  0  0
   -3.6954   -1.7331    0.5810 H   0  0  0  0  0  0
   -1.4935    0.3511    0.2133 H   0  0  0  0  0  0
   -2.0248   -0.8513   -0.9696 H   0  0  0  0  0  0
   -1.2882   -2.6823    0.5884 H   0  0  0  0  0  0
   -0.6796   -1.4797    1.7126 H   0  0  0  0  0  0
    0.2355   -2.0448   -1.1351 H   0  0  0  0  0  0
    1.6707   -2.4457    1.5466 H   0  0  0  0  0  0
    0.9157   -3.6818    0.5632 H   0  0  0  0  0  0
    3.3922   -2.0715   -0.2088 H   0  0  0  0  0  0
    3.2903   -3.7840    0.2032 H   0  0  0  0  0  0
    2.5506   -3.2034   -1.2943 H   0  0  0  0  0  0
    2.8468    0.1447   -1.2755 H   0  0  0  0  0  0
    1.7658   -0.9125   -2.1532 H   0  0  0  0  0  0
    1.5508    1.1523   -3.2454 H   0  0  0  0  0  0
    0.0644    0.9277   -2.3437 H   0  0  0  0  0  0
    0.7274    3.2288   -2.1208 H   0  0  0  0  0  0
    2.3807    2.8147   -1.6996 H   0  0  0  0  0  0
    2.9235    1.8630    0.3994 H   0  0  0  0  0  0
    2.6852    1.9939    2.8483 H   0  0  0  0  0  0
    2.2663    3.5368    2.0843 H   0  0  0  0  0  0
    0.9885    2.4761    2.6839 H   0  0  0  0  0  0
    2.3662   -0.2183    1.3703 H   0  0  0  0  0  0
    0.7151    0.2684    1.7236 H   0  0  0  0  0  0
    0.8983   -0.2400   -0.2934 N   0  3  2  0  0  0
    0.0396    0.2927   -0.4754 H   0  0  0  0  0  0
  1  2  1  0  0  0
  1 17  1  0  0  0
  1 18  1  0  0  0
  1 19  1  0  0  0
  2  3  1  0  0  0
  2 20  1  0  0  0
  2 21  1  0  0  0
  3  4  1  0  0  0
  3 22  1  0  0  0
  3 23  1  0  0  0
  4  5  1  0  0  0
  4 24  1  0  0  0
  4 25  1  0  0  0
  5  6  1  0  0  0
  5 26  1  0  0  0
  5 27  1  0  0  0
  6  7  1  0  0  0
  6 28  1  0  0  0
  6 46  1  0  0  0
  7  8  1  0  0  0
  7 29  1  0  0  0
  7 30  1  0  0  0
  8 31  1  0  0  0
  8 32  1  0  0  0
  8 33  1  0  0  0
  9 10  1  0  0  0
  9 34  1  0  0  0
  9 35  1  0  0  0
  9 46  1  0  0  0
 10 11  1  0  0  0
 10 36  1  0  0  0
 10 37  1  0  0  0
 11 12  1  0  0  0
 11 38  1  0  0  0
 11 39  1  0  0  0
 12 13  2  0  0  0
 12 14  1  0  0  0
 14 15  1  0  0  0
 14 16  1  0  0  0
 14 40  1  0  0  0
 15 41  1  0  0  0
 15 42  1  0  0  0
 15 43  1  0  0  0
 16 44  1  0  0  0
 16 45  1  0  0  0
 16 46  1  0  0  0
 46 47  1  0  0  0
M  CHG  1  46   1
M  END
> <energy>
20.0607

> <chiral flag>
0

> <version>
0

> <i_ionizer_Ion_state_n>
1

> <i_ionizer_Tot_Q>
1

> <s_ionizer_Ion_centers>
46

> <s_ionizer_Ion_types>
N5

> <s_ionizer_Ion_ctrs_in>
9

> <r_ionizer_Ionization_penalty>
0.00148639

> <r_ionizer_Ionization_penalty_charging>
0.00148639

> <r_ionizer_Ionization_penalty_neutral>
0

$$$$
ZINC001258436918
                    3D
 Structure written by MMmdl.
 47 47  0  0  1  0            999 V2000
   -5.2054   -1.2475   -0.2014 C   0  0  0  0  0  0
   -3.7757   -1.5738   -0.6155 C   0  0  0  0  0  0
   -2.7507   -1.0176    0.3787 C   0  0  0  0  0  0
   -2.5293    0.4928    0.2308 C   0  0  0  0  0  0
   -1.4309    0.8783   -0.7761 C   0  0  0  0  0  0
   -0.0622    1.1782   -0.1063 C   0  0  2  0  0  0
    0.8766    1.9948   -1.0309 C   0  0  0  0  0  0
    0.4177    3.4358   -1.2534 C   0  0  0  0  0  0
    0.7448   -0.2454    1.7819 C   0  0  0  0  0  0
    1.9665    0.5055    2.3204 C   0  0  0  0  0  0
    3.2975   -0.1124    1.9197 C   0  0  0  0  0  0
    3.4396   -0.2660    0.4187 C   0  0  0  0  0  0
    4.1576    0.4923   -0.2330 O   0  0  0  0  0  0
    2.6464   -1.3963   -0.2181 C   0  0  2  0  0  0
    3.3983   -1.9340   -1.4364 C   0  0  0  0  0  0
    1.2162   -0.9582   -0.5800 C   0  0  0  0  0  0
   -5.3671   -0.1709   -0.1102 H   0  0  0  0  0  0
   -5.4433   -1.7093    0.7610 H   0  0  0  0  0  0
   -5.9169   -1.6324   -0.9358 H   0  0  0  0  0  0
   -3.5797   -1.1909   -1.6226 H   0  0  0  0  0  0
   -3.6747   -2.6649   -0.6574 H   0  0  0  0  0  0
   -3.1020   -1.2278    1.3965 H   0  0  0  0  0  0
   -1.8045   -1.5560    0.2612 H   0  0  0  0  0  0
   -2.3059    0.9192    1.2155 H   0  0  0  0  0  0
   -3.4638    0.9667   -0.0865 H   0  0  0  0  0  0
   -1.3222    0.1110   -1.5547 H   0  0  0  0  0  0
   -1.7832    1.7780   -1.2941 H   0  0  0  0  0  0
   -0.2607    1.8186    0.7605 H   0  0  0  0  0  0
    1.8794    2.0390   -0.5849 H   0  0  0  0  0  0
    0.9707    1.5144   -2.0132 H   0  0  0  0  0  0
    0.3502    3.9767   -0.3045 H   0  0  0  0  0  0
   -0.5508    3.4922   -1.7565 H   0  0  0  0  0  0
    1.1418    3.9584   -1.8859 H   0  0  0  0  0  0
    0.8203   -1.3123    2.0279 H   0  0  0  0  0  0
   -0.1476    0.0999    2.3190 H   0  0  0  0  0  0
    1.9339    1.5571    2.0049 H   0  0  0  0  0  0
    1.9134    0.5144    3.4179 H   0  0  0  0  0  0
    3.4310   -1.0963    2.3890 H   0  0  0  0  0  0
    4.1249    0.5110    2.2741 H   0  0  0  0  0  0
    2.5986   -2.2120    0.5148 H   0  0  0  0  0  0
    3.4737   -1.1760   -2.2242 H   0  0  0  0  0  0
    2.8955   -2.8124   -1.8538 H   0  0  0  0  0  0
    4.4224   -2.2189   -1.1612 H   0  0  0  0  0  0
    0.6120   -1.8747   -0.6536 H   0  0  0  0  0  0
    1.2047   -0.5536   -1.5985 H   0  0  0  0  0  0
    0.2961   -0.2089    0.3597 N   0  3  2  0  0  0
   -0.5866   -0.7330    0.3427 H   0  0  0  0  0  0
  1  2  1  0  0  0
  1 17  1  0  0  0
  1 18  1  0  0  0
  1 19  1  0  0  0
  2  3  1  0  0  0
  2 20  1  0  0  0
  2 21  1  0  0  0
  3  4  1  0  0  0
  3 22  1  0  0  0
  3 23  1  0  0  0
  4  5  1  0  0  0
  4 24  1  0  0  0
  4 25  1  0  0  0
  5  6  1  0  0  0
  5 26  1  0  0  0
  5 27  1  0  0  0
  6  7  1  0  0  0
  6 28  1  0  0  0
  6 46  1  0  0  0
  7  8  1  0  0  0
  7 29  1  0  0  0
  7 30  1  0  0  0
  8 31  1  0  0  0
  8 32  1  0  0  0
  8 33  1  0  0  0
  9 10  1  0  0  0
  9 34  1  0  0  0
  9 35  1  0  0  0
  9 46  1  0  0  0
 10 11  1  0  0  0
 10 36  1  0  0  0
 10 37  1  0  0  0
 11 12  1  0  0  0
 11 38  1  0  0  0
 11 39  1  0  0  0
 12 13  2  0  0  0
 12 14  1  0  0  0
 14 15  1  0  0  0
 14 16  1  0  0  0
 14 40  1  0  0  0
 15 41  1  0  0  0
 15 42  1  0  0  0
 15 43  1  0  0  0
 16 44  1  0  0  0
 16 45  1  0  0  0
 16 46  1  0  0  0
 46 47  1  0  0  0
M  CHG  1  46   1
M  END
> <energy>
30.5686

> <chiral flag>
0

> <version>
0

> <i_ionizer_Ion_state_n>
1

> <i_ionizer_Tot_Q>
1

> <s_ionizer_Ion_centers>
46

> <s_ionizer_Ion_types>
N5

> <s_ionizer_Ion_ctrs_in>
9

> <r_ionizer_Ionization_penalty>
0.00148639

> <r_ionizer_Ionization_penalty_charging>
0.00148639

> <r_ionizer_Ionization_penalty_neutral>
0

$$$$
ZINC001258436919
                    3D
 Structure written by MMmdl.
 47 47  0  0  1  0            999 V2000
   -5.5073    1.0226   -0.3212 C   0  0  0  0  0  0
   -4.7681   -0.3004   -0.4957 C   0  0  0  0  0  0
   -3.2710   -0.0539   -0.7206 C   0  0  0  0  0  0
   -2.4809   -1.3238   -1.0856 C   0  0  0  0  0  0
   -0.9508   -1.0790   -1.1962 C   0  0  0  0  0  0
   -0.2547   -0.7762    0.1638 C   0  0  1  0  0  0
    0.0236   -2.0751    0.9733 C   0  0  0  0  0  0
    0.2992   -1.7622    2.4440 C   0  0  0  0  0  0
    0.7440    1.4924   -0.1397 C   0  0  0  0  0  0
    1.4611    2.2841    0.9663 C   0  0  0  0  0  0
    2.9406    2.5201    0.6971 C   0  0  0  0  0  0
    3.7171    1.2283    0.5540 C   0  0  0  0  0  0
    4.5611    0.9004    1.3854 O   0  0  0  0  0  0
    3.3968    0.3828   -0.6722 C   0  0  1  0  0  0
    4.6407   -0.3864   -1.1178 C   0  0  0  0  0  0
    2.2322   -0.5624   -0.3398 C   0  0  0  0  0  0
   -5.4027    1.6426   -1.2179 H   0  0  0  0  0  0
   -6.5754    0.8503   -0.1549 H   0  0  0  0  0  0
   -5.1139    1.5849    0.5329 H   0  0  0  0  0  0
   -4.9125   -0.9208    0.3988 H   0  0  0  0  0  0
   -5.2137   -0.8331   -1.3434 H   0  0  0  0  0  0
   -3.1471    0.6840   -1.5227 H   0  0  0  0  0  0
   -2.8723    0.3979    0.1919 H   0  0  0  0  0  0
   -2.6940   -2.1149   -0.3585 H   0  0  0  0  0  0
   -2.8546   -1.6968   -2.0514 H   0  0  0  0  0  0
   -0.4985   -1.9687   -1.6512 H   0  0  0  0  0  0
   -0.7883   -0.2573   -1.9089 H   0  0  0  0  0  0
   -0.9641   -0.2123    0.7802 H   0  0  0  0  0  0
   -0.8289   -2.7653    0.9204 H   0  0  0  0  0  0
    0.8775   -2.6238    0.5593 H   0  0  0  0  0  0
    1.0708   -0.9937    2.5663 H   0  0  0  0  0  0
    0.6395   -2.6621    2.9669 H   0  0  0  0  0  0
   -0.6098   -1.4034    2.9425 H   0  0  0  0  0  0
   -0.3258    1.7319   -0.0769 H   0  0  0  0  0  0
    1.0472    1.8408   -1.1339 H   0  0  0  0  0  0
    1.3263    1.7780    1.9341 H   0  0  0  0  0  0
    0.9764    3.2637    1.0737 H   0  0  0  0  0  0
    3.0865    3.1161   -0.2105 H   0  0  0  0  0  0
    3.3816    3.0988    1.5176 H   0  0  0  0  0  0
    3.1257    1.0547   -1.4941 H   0  0  0  0  0  0
    4.4585   -0.8838   -2.0770 H   0  0  0  0  0  0
    4.9182   -1.1487   -0.3833 H   0  0  0  0  0  0
    5.4954    0.2928   -1.2298 H   0  0  0  0  0  0
    2.5689   -1.1904    0.5016 H   0  0  0  0  0  0
    2.0857   -1.2320   -1.2002 H   0  0  0  0  0  0
    0.9886    0.0735    0.2894 N   0  3  2  0  0  0
    1.1891    0.1221    1.2952 H   0  0  0  0  0  0
  1  2  1  0  0  0
  1 17  1  0  0  0
  1 18  1  0  0  0
  1 19  1  0  0  0
  2  3  1  0  0  0
  2 20  1  0  0  0
  2 21  1  0  0  0
  3  4  1  0  0  0
  3 22  1  0  0  0
  3 23  1  0  0  0
  4  5  1  0  0  0
  4 24  1  0  0  0
  4 25  1  0  0  0
  5  6  1  0  0  0
  5 26  1  0  0  0
  5 27  1  0  0  0
  6  7  1  0  0  0
  6 28  1  0  0  0
  6 46  1  0  0  0
  7  8  1  0  0  0
  7 29  1  0  0  0
  7 30  1  0  0  0
  8 31  1  0  0  0
  8 32  1  0  0  0
  8 33  1  0  0  0
  9 10  1  0  0  0
  9 34  1  0  0  0
  9 35  1  0  0  0
  9 46  1  0  0  0
 10 11  1  0  0  0
 10 36  1  0  0  0
 10 37  1  0  0  0
 11 12  1  0  0  0
 11 38  1  0  0  0
 11 39  1  0  0  0
 12 13  2  0  0  0
 12 14  1  0  0  0
 14 15  1  0  0  0
 14 16  1  0  0  0
 14 40  1  0  0  0
 15 41  1  0  0  0
 15 42  1  0  0  0
 15 43  1  0  0  0
 16 44  1  0  0  0
 16 45  1  0  0  0
 16 46  1  0  0  0
 46 47  1  0  0  0
M  CHG  1  46   1
M  END
> <energy>
25.2822

> <chiral flag>
0

> <version>
0

> <i_ionizer_Ion_state_n>
1

> <i_ionizer_Tot_Q>
1

> <s_ionizer_Ion_centers>
46

> <s_ionizer_Ion_types>
N5

> <s_ionizer_Ion_ctrs_in>
9

> <r_ionizer_Ionization_penalty>
0.00148639

> <r_ionizer_Ionization_penalty_charging>
0.00148639

> <r_ionizer_Ionization_penalty_neutral>
0

$$$$
ZINC001258436920
                    3D
 Structure written by MMmdl.
 47 47  0  0  1  0            999 V2000
   -1.0765    2.7379    2.9545 C   0  0  0  0  0  0
   -1.5049    1.3025    2.6881 C   0  0  0  0  0  0
   -0.3731    0.3313    3.0287 C   0  0  0  0  0  0
   -0.6920   -1.1289    2.6950 C   0  0  0  0  0  0
   -0.7172   -1.4757    1.1952 C   0  0  0  0  0  0
    0.6493   -1.2780    0.4723 C   0  0  1  0  0  0
    1.3483   -2.5742   -0.0430 C   0  0  0  0  0  0
    0.4804   -3.7726   -0.3925 C   0  0  0  0  0  0
    1.8535    0.4726   -0.7161 C   0  0  0  0  0  0
    1.8712    1.7457   -1.5621 C   0  0  0  0  0  0
    1.4724    1.5245   -3.0068 C   0  0  0  0  0  0
   -0.0294    1.5594   -3.1661 C   0  0  0  0  0  0
   -0.5497    2.4548   -3.8416 O   0  0  0  0  0  0
   -0.8824    0.4914   -2.5098 C   0  0  2  0  0  0
   -1.9642    1.1459   -1.6488 C   0  0  0  0  0  0
   -0.0912   -0.6010   -1.7818 C   0  0  0  0  0  0
   -1.8986    3.4300    2.7410 H   0  0  0  0  0  0
   -0.7831    2.8795    4.0010 H   0  0  0  0  0  0
   -0.2249    3.0152    2.3232 H   0  0  0  0  0  0
   -1.7950    1.2103    1.6371 H   0  0  0  0  0  0
   -2.3875    1.0728    3.2920 H   0  0  0  0  0  0
   -0.1709    0.3981    4.1046 H   0  0  0  0  0  0
    0.5481    0.6498    2.5284 H   0  0  0  0  0  0
    0.0511   -1.7711    3.1851 H   0  0  0  0  0  0
   -1.6613   -1.3933    3.1386 H   0  0  0  0  0  0
   -1.0660   -2.5078    1.1170 H   0  0  0  0  0  0
   -1.5076   -0.8791    0.7198 H   0  0  0  0  0  0
    1.3346   -0.9167    1.2490 H   0  0  0  0  0  0
    1.9625   -2.3421   -0.9211 H   0  0  0  0  0  0
    2.0671   -2.8987    0.7198 H   0  0  0  0  0  0
    0.0738   -4.2476    0.5097 H   0  0  0  0  0  0
    1.0858   -4.5374   -0.8978 H   0  0  0  0  0  0
   -0.3449   -3.5104   -1.0626 H   0  0  0  0  0  0
    2.5769   -0.2404   -1.1271 H   0  0  0  0  0  0
    2.2337    0.7620    0.2708 H   0  0  0  0  0  0
    2.8976    2.1407   -1.5381 H   0  0  0  0  0  0
    1.2337    2.5102   -1.1001 H   0  0  0  0  0  0
    1.8838    2.3301   -3.6263 H   0  0  0  0  0  0
    1.8766    0.5950   -3.4192 H   0  0  0  0  0  0
   -1.3969   -0.0152   -3.3394 H   0  0  0  0  0  0
   -1.5384    1.7323   -0.8268 H   0  0  0  0  0  0
   -2.5804    1.8237   -2.2535 H   0  0  0  0  0  0
   -2.6314    0.3896   -1.2258 H   0  0  0  0  0  0
   -0.8235   -1.3905   -1.5768 H   0  0  0  0  0  0
    0.6490   -1.0500   -2.4577 H   0  0  0  0  0  0
    0.5207   -0.1384   -0.4864 N   0  3  1  0  0  0
   -0.0961    0.5702   -0.0722 H   0  0  0  0  0  0
  1  2  1  0  0  0
  1 17  1  0  0  0
  1 18  1  0  0  0
  1 19  1  0  0  0
  2  3  1  0  0  0
  2 20  1  0  0  0
  2 21  1  0  0  0
  3  4  1  0  0  0
  3 22  1  0  0  0
  3 23  1  0  0  0
  4  5  1  0  0  0
  4 24  1  0  0  0
  4 25  1  0  0  0
  5  6  1  0  0  0
  5 26  1  0  0  0
  5 27  1  0  0  0
  6  7  1  0  0  0
  6 28  1  0  0  0
  6 46  1  0  0  0
  7  8  1  0  0  0
  7 29  1  0  0  0
  7 30  1  0  0  0
  8 31  1  0  0  0
  8 32  1  0  0  0
  8 33  1  0  0  0
  9 10  1  0  0  0
  9 34  1  0  0  0
  9 35  1  0  0  0
  9 46  1  0  0  0
 10 11  1  0  0  0
 10 36  1  0  0  0
 10 37  1  0  0  0
 11 12  1  0  0  0
 11 38  1  0  0  0
 11 39  1  0  0  0
 12 13  2  0  0  0
 12 14  1  0  0  0
 14 15  1  0  0  0
 14 16  1  0  0  0
 14 40  1  0  0  0
 15 41  1  0  0  0
 15 42  1  0  0  0
 15 43  1  0  0  0
 16 44  1  0  0  0
 16 45  1  0  0  0
 16 46  1  0  0  0
 46 47  1  0  0  0
M  CHG  1  46   1
M  END
> <energy>
28.0982

> <chiral flag>
0

> <version>
0

> <i_ionizer_Ion_state_n>
1

> <i_ionizer_Tot_Q>
1

> <s_ionizer_Ion_centers>
46

> <s_ionizer_Ion_types>
N5

> <s_ionizer_Ion_ctrs_in>
9

> <r_ionizer_Ionization_penalty>
0.00148639

> <r_ionizer_Ionization_penalty_charging>
0.00148639

> <r_ionizer_Ionization_penalty_neutral>
0

$$$$
ZINC001258436933
                    3D
 Structure written by MMmdl.
 49 49  0  0  1  0            999 V2000
   -2.8698   -3.3789   -2.5589 C   0  0  0  0  0  0
   -3.2183   -2.0549   -1.8918 C   0  0  0  0  0  0
   -2.4967   -1.9222   -0.5514 C   0  0  0  0  0  0
   -2.8493   -0.6429    0.2100 C   0  0  0  0  0  0
   -2.3025    0.6363   -0.4554 C   0  0  0  0  0  0
   -1.4499    1.5318    0.4777 C   0  0  1  0  0  0
   -2.3387    2.1329    1.5900 C   0  0  0  0  0  0
   -1.6559    3.2473    2.3718 C   0  0  0  0  0  0
    0.9848    0.8992    0.4900 C   0  0  2  0  0  0
    1.0900    0.8945   -1.0419 C   0  0  0  0  0  0
    2.5448    0.9840   -1.5044 C   0  0  0  0  0  0
    3.3996   -0.1248   -0.9040 C   0  0  0  0  0  0
    3.2962   -0.1705    0.6223 C   0  0  2  0  0  0
    3.9633   -1.3297    1.1389 O   0  0  0  0  0  0
    5.3746   -1.1764    1.2241 C   0  0  0  0  0  0
    1.8332   -0.2539    1.0610 C   0  0  0  0  0  0
   -3.1912   -4.2232   -1.9410 H   0  0  0  0  0  0
   -1.7883   -3.4597   -2.7157 H   0  0  0  0  0  0
   -3.3639   -3.4601   -3.5325 H   0  0  0  0  0  0
   -2.9405   -1.2337   -2.5614 H   0  0  0  0  0  0
   -4.3033   -1.9994   -1.7441 H   0  0  0  0  0  0
   -1.4121   -1.9677   -0.7080 H   0  0  0  0  0  0
   -2.7590   -2.7825    0.0766 H   0  0  0  0  0  0
   -2.4583   -0.7565    1.2282 H   0  0  0  0  0  0
   -3.9388   -0.5646    0.3161 H   0  0  0  0  0  0
   -1.7153    0.3814   -1.3448 H   0  0  0  0  0  0
   -3.1552    1.2223   -0.8278 H   0  0  0  0  0  0
   -1.0584    2.3732   -0.1044 H   0  0  0  0  0  0
   -3.2597    2.5378    1.1490 H   0  0  0  0  0  0
   -2.6508    1.3515    2.2914 H   0  0  0  0  0  0
   -1.5066    4.1246    1.7361 H   0  0  0  0  0  0
   -2.2819    3.5473    3.2194 H   0  0  0  0  0  0
   -0.6831    2.9402    2.7659 H   0  0  0  0  0  0
    1.3840    1.8488    0.8646 H   0  0  0  0  0  0
    0.6441   -0.0244   -1.4436 H   0  0  0  0  0  0
    0.5403    1.7362   -1.4736 H   0  0  0  0  0  0
    2.9608    1.9581   -1.2165 H   0  0  0  0  0  0
    2.5877    0.9282   -2.5983 H   0  0  0  0  0  0
    4.4410    0.0186   -1.2109 H   0  0  0  0  0  0
    3.0996   -1.0956   -1.3220 H   0  0  0  0  0  0
    3.7392    0.7335    1.0614 H   0  0  0  0  0  0
    5.8067   -2.1328    1.5241 H   0  0  0  0  0  0
    5.6329   -0.4273    1.9802 H   0  0  0  0  0  0
    5.8095   -0.8984    0.2605 H   0  0  0  0  0  0
    1.7892   -0.2669    2.1582 H   0  0  0  0  0  0
    1.4149   -1.2199    0.7401 H   0  0  0  0  0  0
   -0.3728    0.6868    1.0872 N   0  3  0  0  0  0
   -0.3214    0.9038    2.0894 H   0  0  0  0  0  0
   -0.6284   -0.2999    0.9633 H   0  0  0  0  0  0
  1  2  1  0  0  0
  1 17  1  0  0  0
  1 18  1  0  0  0
  1 19  1  0  0  0
  2  3  1  0  0  0
  2 20  1  0  0  0
  2 21  1  0  0  0
  3  4  1  0  0  0
  3 22  1  0  0  0
  3 23  1  0  0  0
  4  5  1  0  0  0
  4 24  1  0  0  0
  4 25  1  0  0  0
  5  6  1  0  0  0
  5 26  1  0  0  0
  5 27  1  0  0  0
  6  7  1  0  0  0
  6 28  1  0  0  0
  6 47  1  0  0  0
  7  8  1  0  0  0
  7 29  1  0  0  0
  7 30  1  0  0  0
  8 31  1  0  0  0
  8 32  1  0  0  0
  8 33  1  0  0  0
  9 10  1  0  0  0
  9 16  1  0  0  0
  9 34  1  0  0  0
  9 47  1  0  0  0
 10 11  1  0  0  0
 10 35  1  0  0  0
 10 36  1  0  0  0
 11 12  1  0  0  0
 11 37  1  0  0  0
 11 38  1  0  0  0
 12 13  1  0  0  0
 12 39  1  0  0  0
 12 40  1  0  0  0
 13 14  1  0  0  0
 13 16  1  0  0  0
 13 41  1  0  0  0
 14 15  1  0  0  0
 15 42  1  0  0  0
 15 43  1  0  0  0
 15 44  1  0  0  0
 16 45  1  0  0  0
 16 46  1  0  0  0
 47 48  1  0  0  0
 47 49  1  0  0  0
M  CHG  1  47   1
M  END
> <energy>
17.7501

> <chiral flag>
0

> <version>
0

> <i_ionizer_Ion_state_n>
1

> <i_ionizer_Tot_Q>
1

> <s_ionizer_Ion_centers>
47

> <s_ionizer_Ion_types>
N5

> <s_ionizer_Ion_ctrs_in>
9

> <r_ionizer_Ionization_penalty>
0.000148807

> <r_ionizer_Ionization_penalty_charging>
0.000148807

> <r_ionizer_Ionization_penalty_neutral>
0

$$$$
ZINC001258436934
                    3D
 Structure written by MMmdl.
 49 49  0  0  1  0            999 V2000
   -4.6065    1.1408    0.2968 C   0  0  0  0  0  0
   -4.8356   -0.3041   -0.1278 C   0  0  0  0  0  0
   -3.8784   -1.3047    0.5354 C   0  0  0  0  0  0
   -2.4310   -1.1089    0.0745 C   0  0  0  0  0  0
   -1.4581   -2.1138    0.7090 C   0  0  0  0  0  0
    0.0231   -1.7428    0.4266 C   0  0  2  0  0  0
    0.9893   -2.8343    0.9330 C   0  0  0  0  0  0
    0.8812   -4.1506    0.1738 C   0  0  0  0  0  0
    1.4090    0.3588    0.6995 C   0  0  2  0  0  0
    1.2375    1.7016    1.4398 C   0  0  0  0  0  0
    2.3065    2.7281    1.0829 C   0  0  0  0  0  0
    2.3852    2.9504   -0.4219 C   0  0  0  0  0  0
    2.5982    1.6302   -1.1723 C   0  0  2  0  0  0
    2.5471    1.8214   -2.5914 O   0  0  0  0  0  0
    3.7058    2.4511   -3.1210 C   0  0  0  0  0  0
    1.5088    0.6070   -0.8136 C   0  0  0  0  0  0
   -4.6832    1.2516    1.3829 H   0  0  0  0  0  0
   -3.6255    1.5063   -0.0209 H   0  0  0  0  0  0
   -5.3611    1.7892   -0.1593 H   0  0  0  0  0  0
   -5.8636   -0.5819    0.1322 H   0  0  0  0  0  0
   -4.7537   -0.3791   -1.2196 H   0  0  0  0  0  0
   -3.9390   -1.2107    1.6277 H   0  0  0  0  0  0
   -4.2065   -2.3207    0.2866 H   0  0  0  0  0  0
   -2.3798   -1.2109   -1.0151 H   0  0  0  0  0  0
   -2.1193   -0.0901    0.3133 H   0  0  0  0  0  0
   -1.6889   -3.1077    0.3112 H   0  0  0  0  0  0
   -1.6282   -2.1673    1.7915 H   0  0  0  0  0  0
    0.1275   -1.6365   -0.6582 H   0  0  0  0  0  0
    0.8126   -3.0222    1.9985 H   0  0  0  0  0  0
    2.0255   -2.4831    0.8393 H   0  0  0  0  0  0
    1.6138   -4.8649    0.5618 H   0  0  0  0  0  0
    1.0800   -4.0064   -0.8919 H   0  0  0  0  0  0
   -0.1047   -4.6105    0.2826 H   0  0  0  0  0  0
    2.3396   -0.1074    1.0386 H   0  0  0  0  0  0
    1.2511    1.5432    2.5254 H   0  0  0  0  0  0
    0.2552    2.1310    1.1980 H   0  0  0  0  0  0
    3.2814    2.3977    1.4578 H   0  0  0  0  0  0
    2.0772    3.6802    1.5767 H   0  0  0  0  0  0
    3.2006    3.6512   -0.6380 H   0  0  0  0  0  0
    1.4720    3.4404   -0.7844 H   0  0  0  0  0  0
    3.5710    1.2075   -0.8991 H   0  0  0  0  0  0
    4.6096    1.9066   -2.8387 H   0  0  0  0  0  0
    3.6309    2.4458   -4.2111 H   0  0  0  0  0  0
    3.7676    3.4916   -2.7946 H   0  0  0  0  0  0
    0.5436    0.9496   -1.2105 H   0  0  0  0  0  0
    1.7378   -0.3284   -1.3429 H   0  0  0  0  0  0
    0.2288   -0.4481    1.1662 N   0  3  0  0  0  0
   -0.6160    0.1242    1.0512 H   0  0  0  0  0  0
    0.3624   -0.6651    2.1608 H   0  0  0  0  0  0
  1  2  1  0  0  0
  1 17  1  0  0  0
  1 18  1  0  0  0
  1 19  1  0  0  0
  2  3  1  0  0  0
  2 20  1  0  0  0
  2 21  1  0  0  0
  3  4  1  0  0  0
  3 22  1  0  0  0
  3 23  1  0  0  0
  4  5  1  0  0  0
  4 24  1  0  0  0
  4 25  1  0  0  0
  5  6  1  0  0  0
  5 26  1  0  0  0
  5 27  1  0  0  0
  6  7  1  0  0  0
  6 28  1  0  0  0
  6 47  1  0  0  0
  7  8  1  0  0  0
  7 29  1  0  0  0
  7 30  1  0  0  0
  8 31  1  0  0  0
  8 32  1  0  0  0
  8 33  1  0  0  0
  9 10  1  0  0  0
  9 16  1  0  0  0
  9 34  1  0  0  0
  9 47  1  0  0  0
 10 11  1  0  0  0
 10 35  1  0  0  0
 10 36  1  0  0  0
 11 12  1  0  0  0
 11 37  1  0  0  0
 11 38  1  0  0  0
 12 13  1  0  0  0
 12 39  1  0  0  0
 12 40  1  0  0  0
 13 14  1  0  0  0
 13 16  1  0  0  0
 13 41  1  0  0  0
 14 15  1  0  0  0
 15 42  1  0  0  0
 15 43  1  0  0  0
 15 44  1  0  0  0
 16 45  1  0  0  0
 16 46  1  0  0  0
 47 48  1  0  0  0
 47 49  1  0  0  0
M  CHG  1  47   1
M  END
> <energy>
13.0551

> <chiral flag>
0

> <version>
0

> <i_ionizer_Ion_state_n>
1

> <i_ionizer_Tot_Q>
1

> <s_ionizer_Ion_centers>
47

> <s_ionizer_Ion_types>
N5

> <s_ionizer_Ion_ctrs_in>
9

> <r_ionizer_Ionization_penalty>
0.000148807

> <r_ionizer_Ionization_penalty_charging>
0.000148807

> <r_ionizer_Ionization_penalty_neutral>
0

$$$$
ZINC001258437360
                    3D
 Structure written by MMmdl.
 43 44  0  0  1  0            999 V2000
   -3.3302   -3.3186    0.3130 C   0  0  0  0  0  0
   -3.1036   -1.8995    0.8110 C   0  0  0  0  0  0
   -2.6433   -0.9716   -0.3128 C   0  0  0  0  0  0
   -2.4466    0.4641    0.1929 C   0  0  0  0  0  0
   -1.9066    1.4184   -0.8886 C   0  0  0  0  0  0
   -0.3630    1.5847   -0.9910 C   0  0  1  0  0  0
    0.1901    2.7064   -0.0722 C   0  0  0  0  0  0
   -0.2773    2.7144    1.3772 C   0  0  0  0  0  0
    1.0348   -0.1501    0.1987 C   0  0  0  0  0  0
    2.0770   -0.8306   -0.7539 C   0  0  2  0  0  0
    1.7563   -2.1084   -1.1060 F   0  0  0  0  0  0
    3.5554   -0.8462   -0.4103 C   0  0  0  0  0  0
    4.2664    0.0878    0.5309 C   0  0  0  0  0  0
    4.0883   -1.3591    0.9010 C   0  0  0  0  0  0
    1.5710    0.2615   -1.7563 C   0  0  0  0  0  0
   -4.1071   -3.3486   -0.4584 H   0  0  0  0  0  0
   -2.4110   -3.7396   -0.1093 H   0  0  0  0  0  0
   -3.6492   -3.9628    1.1392 H   0  0  0  0  0  0
   -4.0330   -1.5206    1.2504 H   0  0  0  0  0  0
   -2.3520   -1.9183    1.6077 H   0  0  0  0  0  0
   -1.7168   -1.3650   -0.7433 H   0  0  0  0  0  0
   -3.3887   -0.9736   -1.1184 H   0  0  0  0  0  0
   -1.8079    0.4683    1.0816 H   0  0  0  0  0  0
   -3.4269    0.8424    0.5141 H   0  0  0  0  0  0
   -2.2899    1.0917   -1.8655 H   0  0  0  0  0  0
   -2.3490    2.4108   -0.7235 H   0  0  0  0  0  0
   -0.2204    1.9921   -2.0044 H   0  0  0  0  0  0
   -0.1033    3.6724   -0.5074 H   0  0  0  0  0  0
    1.2876    2.7101   -0.0989 H   0  0  0  0  0  0
   -0.1206    1.7578    1.8787 H   0  0  0  0  0  0
    0.2737    3.4739    1.9417 H   0  0  0  0  0  0
   -1.3390    2.9720    1.4491 H   0  0  0  0  0  0
    0.4929   -0.8373    0.8540 H   0  0  0  0  0  0
    1.4771    0.6414    0.8090 H   0  0  0  0  0  0
    4.0908   -1.1532   -1.3025 H   0  0  0  0  0  0
    5.2650    0.4167    0.2643 H   0  0  0  0  0  0
    3.6994    0.8255    1.0844 H   0  0  0  0  0  0
    4.9602   -2.0018    0.8766 H   0  0  0  0  0  0
    3.3815   -1.6001    1.6865 H   0  0  0  0  0  0
    1.4871   -0.0720   -2.7946 H   0  0  0  0  0  0
    2.1433    1.1969   -1.7332 H   0  0  0  0  0  0
    0.4017    0.2286   -1.0103 N   0  3  2  0  0  0
   -0.2456   -0.4980   -1.3378 H   0  0  0  0  0  0
  1  2  1  0  0  0
  1 16  1  0  0  0
  1 17  1  0  0  0
  1 18  1  0  0  0
  2  3  1  0  0  0
  2 19  1  0  0  0
  2 20  1  0  0  0
  3  4  1  0  0  0
  3 21  1  0  0  0
  3 22  1  0  0  0
  4  5  1  0  0  0
  4 23  1  0  0  0
  4 24  1  0  0  0
  5  6  1  0  0  0
  5 25  1  0  0  0
  5 26  1  0  0  0
  6  7  1  0  0  0
  6 27  1  0  0  0
  6 42  1  0  0  0
  7  8  1  0  0  0
  7 28  1  0  0  0
  7 29  1  0  0  0
  8 30  1  0  0  0
  8 31  1  0  0  0
  8 32  1  0  0  0
  9 10  1  0  0  0
  9 33  1  0  0  0
  9 34  1  0  0  0
  9 42  1  0  0  0
 10 11  1  0  0  0
 10 12  1  0  0  0
 10 15  1  0  0  0
 12 13  1  0  0  0
 12 14  1  0  0  0
 12 35  1  0  0  0
 13 14  1  0  0  0
 13 36  1  0  0  0
 13 37  1  0  0  0
 14 38  1  0  0  0
 14 39  1  0  0  0
 15 40  1  0  0  0
 15 41  1  0  0  0
 15 42  1  0  0  0
 42 43  1  0  0  0
M  CHG  1  42   1
M  END
> <energy>
75.5692

> <chiral flag>
0

> <version>
0

> <i_ionizer_Ion_state_n>
1

> <i_ionizer_Tot_Q>
1

> <s_ionizer_Ion_centers>
42

> <s_ionizer_Ion_types>
N5

> <s_ionizer_Ion_ctrs_in>
9

> <r_ionizer_Ionization_penalty>
0.00148639

> <r_ionizer_Ionization_penalty_charging>
0.00148639

> <r_ionizer_Ionization_penalty_neutral>
0

$$$$
ZINC001258437361
                    3D
 Structure written by MMmdl.
 43 44  0  0  1  0            999 V2000
   -4.5302   -1.8244    0.8470 C   0  0  0  0  0  0
   -4.3595   -0.6680   -0.1293 C   0  0  0  0  0  0
   -3.1722   -0.8661   -1.0782 C   0  0  0  0  0  0
   -1.8073   -0.6176   -0.4227 C   0  0  0  0  0  0
   -1.4553    0.8718   -0.3476 C   0  0  0  0  0  0
   -0.2605    1.2552    0.5679 C   0  0  2  0  0  0
   -0.1599    2.8064    0.5600 C   0  0  0  0  0  0
    0.8472    3.3785    1.5530 C   0  0  0  0  0  0
    1.4463    0.3846   -1.0517 C   0  0  0  0  0  0
    2.2039   -0.8733   -0.4967 C   0  0  1  0  0  0
    1.9575   -2.0220   -1.1835 F   0  0  0  0  0  0
    3.7115   -0.7515   -0.2950 C   0  0  0  0  0  0
    4.7202   -1.2152   -1.3085 C   0  0  0  0  0  0
    4.6143   -1.9135    0.0190 C   0  0  0  0  0  0
    1.2896   -0.6692    0.7532 C   0  0  0  0  0  0
   -5.4034   -1.6554    1.4844 H   0  0  0  0  0  0
   -4.6842   -2.7684    0.3132 H   0  0  0  0  0  0
   -3.6591   -1.9423    1.4976 H   0  0  0  0  0  0
   -5.2741   -0.5888   -0.7274 H   0  0  0  0  0  0
   -4.2641    0.2697    0.4273 H   0  0  0  0  0  0
   -3.2886   -0.2024   -1.9432 H   0  0  0  0  0  0
   -3.1955   -1.8915   -1.4691 H   0  0  0  0  0  0
   -1.0531   -1.1364   -1.0246 H   0  0  0  0  0  0
   -1.7853   -1.0632    0.5754 H   0  0  0  0  0  0
   -2.3331    1.4137    0.0283 H   0  0  0  0  0  0
   -1.2905    1.2564   -1.3616 H   0  0  0  0  0  0
   -0.5434    0.9734    1.5919 H   0  0  0  0  0  0
    0.0963    3.1615   -0.4467 H   0  0  0  0  0  0
   -1.1427    3.2319    0.8028 H   0  0  0  0  0  0
    0.6254    3.0515    2.5729 H   0  0  0  0  0  0
    0.8054    4.4729    1.5362 H   0  0  0  0  0  0
    1.8715    3.0794    1.3097 H   0  0  0  0  0  0
    0.6397    0.1207   -1.7413 H   0  0  0  0  0  0
    2.0799    1.1267   -1.5483 H   0  0  0  0  0  0
    3.9185    0.1820    0.2214 H   0  0  0  0  0  0
    4.3639   -1.7429   -2.1863 H   0  0  0  0  0  0
    5.5814   -0.5844   -1.4920 H   0  0  0  0  0  0
    5.4092   -1.7602    0.7410 H   0  0  0  0  0  0
    4.1890   -2.9102    0.0348 H   0  0  0  0  0  0
    0.4127   -1.3210    0.7628 H   0  0  0  0  0  0
    1.7910   -0.7747    1.7213 H   0  0  0  0  0  0
    1.1413    0.6463    0.3020 N   0  3  2  0  0  0
    1.8403    1.2687    0.7241 H   0  0  0  0  0  0
  1  2  1  0  0  0
  1 16  1  0  0  0
  1 17  1  0  0  0
  1 18  1  0  0  0
  2  3  1  0  0  0
  2 19  1  0  0  0
  2 20  1  0  0  0
  3  4  1  0  0  0
  3 21  1  0  0  0
  3 22  1  0  0  0
  4  5  1  0  0  0
  4 23  1  0  0  0
  4 24  1  0  0  0
  5  6  1  0  0  0
  5 25  1  0  0  0
  5 26  1  0  0  0
  6  7  1  0  0  0
  6 27  1  0  0  0
  6 42  1  0  0  0
  7  8  1  0  0  0
  7 28  1  0  0  0
  7 29  1  0  0  0
  8 30  1  0  0  0
  8 31  1  0  0  0
  8 32  1  0  0  0
  9 10  1  0  0  0
  9 33  1  0  0  0
  9 34  1  0  0  0
  9 42  1  0  0  0
 10 11  1  0  0  0
 10 12  1  0  0  0
 10 15  1  0  0  0
 12 13  1  0  0  0
 12 14  1  0  0  0
 12 35  1  0  0  0
 13 14  1  0  0  0
 13 36  1  0  0  0
 13 37  1  0  0  0
 14 38  1  0  0  0
 14 39  1  0  0  0
 15 40  1  0  0  0
 15 41  1  0  0  0
 15 42  1  0  0  0
 42 43  1  0  0  0
M  CHG  1  42   1
M  END
> <energy>
69.806

> <chiral flag>
0

> <version>
0

> <i_ionizer_Ion_state_n>
1

> <i_ionizer_Tot_Q>
1

> <s_ionizer_Ion_centers>
42

> <s_ionizer_Ion_types>
N5

> <s_ionizer_Ion_ctrs_in>
9

> <r_ionizer_Ionization_penalty>
0.00148639

> <r_ionizer_Ionization_penalty_charging>
0.00148639

> <r_ionizer_Ionization_penalty_neutral>
0

$$$$
ZINC001258437411
                    3D
 Structure written by MMmdl.
 49 49  0  0  1  0            999 V2000
   -5.4403    0.9094   -0.4185 C   0  0  0  0  0  0
   -4.4407    1.4232    0.6074 C   0  0  0  0  0  0
   -3.5345    0.3215    1.1608 C   0  0  0  0  0  0
   -2.4402   -0.1082    0.1782 C   0  0  0  0  0  0
   -1.6201   -1.2794    0.7420 C   0  0  0  0  0  0
   -0.3690   -1.6231   -0.1109 C   0  0  2  0  0  0
    0.3502   -2.8861    0.4237 C   0  0  0  0  0  0
   -0.4445   -4.1675    0.1969 C   0  0  0  0  0  0
    1.0658    0.0956    1.0214 C   0  0  0  0  0  0
    2.5731    0.3568    0.9723 C   0  0  0  0  0  0
    2.9789    1.2363   -0.2293 C   0  0  2  0  0  0
    4.4782    1.0187   -0.4972 C   0  0  0  0  0  0
    2.7333    2.5979    0.1795 O   0  0  0  0  0  0
    3.1785    3.6167   -0.7048 C   0  0  0  0  0  0
    2.1259    0.8892   -1.4719 C   0  0  0  0  0  0
    1.4450   -0.4729   -1.3511 C   0  0  0  0  0  0
   -6.0709    0.1238    0.0122 H   0  0  0  0  0  0
   -6.0939    1.7244   -0.7477 H   0  0  0  0  0  0
   -4.9410    0.5038   -1.3027 H   0  0  0  0  0  0
   -3.8375    2.2248    0.1665 H   0  0  0  0  0  0
   -5.0023    1.8696    1.4375 H   0  0  0  0  0  0
   -3.0537    0.6989    2.0718 H   0  0  0  0  0  0
   -4.1402   -0.5433    1.4560 H   0  0  0  0  0  0
   -1.7942    0.7533   -0.0199 H   0  0  0  0  0  0
   -2.8763   -0.4101   -0.7794 H   0  0  0  0  0  0
   -1.3270   -1.0684    1.7785 H   0  0  0  0  0  0
   -2.2834   -2.1513    0.7903 H   0  0  0  0  0  0
   -0.7413   -1.8521   -1.1192 H   0  0  0  0  0  0
    1.3170   -3.0115   -0.0767 H   0  0  0  0  0  0
    0.5611   -2.7898    1.4948 H   0  0  0  0  0  0
   -1.3764   -4.1784    0.7686 H   0  0  0  0  0  0
    0.1461   -5.0359    0.5097 H   0  0  0  0  0  0
   -0.6860   -4.2946   -0.8635 H   0  0  0  0  0  0
    0.8745   -0.5504    1.8862 H   0  0  0  0  0  0
    0.5413    1.0380    1.2235 H   0  0  0  0  0  0
    3.0887   -0.6130    0.9328 H   0  0  0  0  0  0
    2.8771    0.8384    1.9112 H   0  0  0  0  0  0
    4.7038   -0.0342   -0.6928 H   0  0  0  0  0  0
    4.8198    1.5922   -1.3653 H   0  0  0  0  0  0
    5.0786    1.3529    0.3571 H   0  0  0  0  0  0
    2.9028    3.4120   -1.7424 H   0  0  0  0  0  0
    4.2621    3.7472   -0.6192 H   0  0  0  0  0  0
    2.7050    4.5560   -0.4017 H   0  0  0  0  0  0
    1.3499    1.6516   -1.6253 H   0  0  0  0  0  0
    2.7442    0.9013   -2.3790 H   0  0  0  0  0  0
    0.8880   -0.6577   -2.2776 H   0  0  0  0  0  0
    2.1975   -1.2637   -1.2646 H   0  0  0  0  0  0
    0.4347   -0.3516   -0.2656 N   0  3  1  0  0  0
   -0.2234    0.3847   -0.5467 H   0  0  0  0  0  0
  1  2  1  0  0  0
  1 17  1  0  0  0
  1 18  1  0  0  0
  1 19  1  0  0  0
  2  3  1  0  0  0
  2 20  1  0  0  0
  2 21  1  0  0  0
  3  4  1  0  0  0
  3 22  1  0  0  0
  3 23  1  0  0  0
  4  5  1  0  0  0
  4 24  1  0  0  0
  4 25  1  0  0  0
  5  6  1  0  0  0
  5 26  1  0  0  0
  5 27  1  0  0  0
  6  7  1  0  0  0
  6 28  1  0  0  0
  6 48  1  0  0  0
  7  8  1  0  0  0
  7 29  1  0  0  0
  7 30  1  0  0  0
  8 31  1  0  0  0
  8 32  1  0  0  0
  8 33  1  0  0  0
  9 10  1  0  0  0
  9 34  1  0  0  0
  9 35  1  0  0  0
  9 48  1  0  0  0
 10 11  1  0  0  0
 10 36  1  0  0  0
 10 37  1  0  0  0
 11 12  1  0  0  0
 11 13  1  0  0  0
 11 15  1  0  0  0
 12 38  1  0  0  0
 12 39  1  0  0  0
 12 40  1  0  0  0
 13 14  1  0  0  0
 14 41  1  0  0  0
 14 42  1  0  0  0
 14 43  1  0  0  0
 15 16  1  0  0  0
 15 44  1  0  0  0
 15 45  1  0  0  0
 16 46  1  0  0  0
 16 47  1  0  0  0
 16 48  1  0  0  0
 48 49  1  0  0  0
M  CHG  1  48   1
M  END
> <energy>
28.5183

> <chiral flag>
0

> <version>
0

> <i_ionizer_Ion_state_n>
1

> <i_ionizer_Tot_Q>
1

> <s_ionizer_Ion_centers>
48

> <s_ionizer_Ion_types>
N5

> <s_ionizer_Ion_ctrs_in>
9

> <r_ionizer_Ionization_penalty>
0.00148639

> <r_ionizer_Ionization_penalty_charging>
0.00148639

> <r_ionizer_Ionization_penalty_neutral>
0

$$$$
ZINC001258437412
                    3D
 Structure written by MMmdl.
 49 49  0  0  1  0            999 V2000
   -4.6528   -2.8706   -1.2787 C   0  0  0  0  0  0
   -3.6989   -1.7272   -1.5887 C   0  0  0  0  0  0
   -3.3997   -0.9111   -0.3333 C   0  0  0  0  0  0
   -2.4617    0.2576   -0.6335 C   0  0  0  0  0  0
   -2.0465    0.9776    0.6596 C   0  0  0  0  0  0
   -0.7779    1.8475    0.4900 C   0  0  1  0  0  0
   -0.5972    2.7940    1.7015 C   0  0  0  0  0  0
   -0.2722    2.1126    3.0274 C   0  0  0  0  0  0
    1.3339    1.6821   -0.8083 C   0  0  0  0  0  0
    2.7938    1.3074   -0.5438 C   0  0  0  0  0  0
    3.0137   -0.2164   -0.3750 C   0  0  2  0  0  0
    3.8155   -0.4473    0.9157 C   0  0  0  0  0  0
    3.7889   -0.6302   -1.5191 O   0  0  0  0  0  0
    4.1266   -2.0062   -1.6147 C   0  0  0  0  0  0
    1.6699   -0.9615   -0.3342 C   0  0  0  0  0  0
    0.6380   -0.2695    0.5559 C   0  0  0  0  0  0
   -4.2419   -3.5270   -0.5032 H   0  0  0  0  0  0
   -5.6172   -2.4867   -0.9308 H   0  0  0  0  0  0
   -4.8294   -3.4730   -2.1760 H   0  0  0  0  0  0
   -2.7663   -2.1348   -1.9982 H   0  0  0  0  0  0
   -4.1426   -1.0859   -2.3595 H   0  0  0  0  0  0
   -4.3328   -0.5303    0.0993 H   0  0  0  0  0  0
   -2.9422   -1.5670    0.4175 H   0  0  0  0  0  0
   -2.9572    0.9717   -1.3019 H   0  0  0  0  0  0
   -1.5879   -0.1131   -1.1786 H   0  0  0  0  0  0
   -2.8868    1.6142    0.9732 H   0  0  0  0  0  0
   -1.9033    0.2582    1.4748 H   0  0  0  0  0  0
   -0.9864    2.4996   -0.3711 H   0  0  0  0  0  0
   -1.5156    3.3795    1.8329 H   0  0  0  0  0  0
    0.1968    3.5204    1.4791 H   0  0  0  0  0  0
    0.7134    1.6367    3.0004 H   0  0  0  0  0  0
   -1.0174    1.3577    3.2970 H   0  0  0  0  0  0
   -0.2520    2.8556    3.8331 H   0  0  0  0  0  0
    1.0136    1.3196   -1.7926 H   0  0  0  0  0  0
    1.2731    2.7781   -0.8329 H   0  0  0  0  0  0
    3.1099    1.8402    0.3641 H   0  0  0  0  0  0
    3.4154    1.7047   -1.3551 H   0  0  0  0  0  0
    3.3131   -0.0176    1.7881 H   0  0  0  0  0  0
    4.8123    0.0016    0.8419 H   0  0  0  0  0  0
    3.9603   -1.5126    1.1177 H   0  0  0  0  0  0
    4.7472   -2.3238   -0.7728 H   0  0  0  0  0  0
    4.7111   -2.1482   -2.5295 H   0  0  0  0  0  0
    3.2340   -2.6339   -1.6912 H   0  0  0  0  0  0
    1.8093   -1.9911    0.0163 H   0  0  0  0  0  0
    1.2689   -1.0598   -1.3548 H   0  0  0  0  0  0
    0.9312   -0.3693    1.6055 H   0  0  0  0  0  0
   -0.2845   -0.8430    0.4459 H   0  0  0  0  0  0
    0.6060    1.2313    0.4033 N   0  3  2  0  0  0
    1.1277    1.6030    1.2058 H   0  0  0  0  0  0
  1  2  1  0  0  0
  1 17  1  0  0  0
  1 18  1  0  0  0
  1 19  1  0  0  0
  2  3  1  0  0  0
  2 20  1  0  0  0
  2 21  1  0  0  0
  3  4  1  0  0  0
  3 22  1  0  0  0
  3 23  1  0  0  0
  4  5  1  0  0  0
  4 24  1  0  0  0
  4 25  1  0  0  0
  5  6  1  0  0  0
  5 26  1  0  0  0
  5 27  1  0  0  0
  6  7  1  0  0  0
  6 28  1  0  0  0
  6 48  1  0  0  0
  7  8  1  0  0  0
  7 29  1  0  0  0
  7 30  1  0  0  0
  8 31  1  0  0  0
  8 32  1  0  0  0
  8 33  1  0  0  0
  9 10  1  0  0  0
  9 34  1  0  0  0
  9 35  1  0  0  0
  9 48  1  0  0  0
 10 11  1  0  0  0
 10 36  1  0  0  0
 10 37  1  0  0  0
 11 12  1  0  0  0
 11 13  1  0  0  0
 11 15  1  0  0  0
 12 38  1  0  0  0
 12 39  1  0  0  0
 12 40  1  0  0  0
 13 14  1  0  0  0
 14 41  1  0  0  0
 14 42  1  0  0  0
 14 43  1  0  0  0
 15 16  1  0  0  0
 15 44  1  0  0  0
 15 45  1  0  0  0
 16 46  1  0  0  0
 16 47  1  0  0  0
 16 48  1  0  0  0
 48 49  1  0  0  0
M  CHG  1  48   1
M  END
> <energy>
32.5454

> <chiral flag>
0

> <version>
0

> <i_ionizer_Ion_state_n>
1

> <i_ionizer_Tot_Q>
1

> <s_ionizer_Ion_centers>
48

> <s_ionizer_Ion_types>
N5

> <s_ionizer_Ion_ctrs_in>
9

> <r_ionizer_Ionization_penalty>
0.00148639

> <r_ionizer_Ionization_penalty_charging>
0.00148639

> <r_ionizer_Ionization_penalty_neutral>
0

$$$$
ZINC001258437422
                    3D
 Structure written by MMmdl.
 53 52  0  0  1  0            999 V2000
   -4.0772   -1.3467    0.7644 C   0  0  0  0  0  0
   -4.0615    0.1536    1.0025 C   0  0  0  0  0  0
   -2.7099    0.8287    0.7488 C   0  0  0  0  0  0
   -2.2060    0.7035   -0.6899 C   0  0  0  0  0  0
   -1.2955   -0.5096   -0.9659 C   0  0  0  0  0  0
    0.2178   -0.1647   -1.0676 C   0  0  2  0  0  0
    0.9243   -1.0394   -2.1363 C   0  0  0  0  0  0
    0.6612   -0.5582   -3.5615 C   0  0  0  0  0  0
    1.0739   -1.3262    1.0828 C   0  0  0  0  0  0
    1.0063   -2.7120    0.4259 C   0  0  0  0  0  0
    0.0716   -1.2987    2.2456 C   0  0  0  0  0  0
    1.7540    1.0850    0.5348 C   0  0  0  0  0  0
    2.5828    1.0125    1.8494 C   0  0  0  0  0  0
    0.7905    2.2856    0.7148 C   0  0  0  0  0  0
    2.7744    1.3791   -0.6311 C   0  0  0  0  0  0
   -3.3083   -1.8465    1.3611 H   0  0  0  0  0  0
   -5.0496   -1.7615    1.0491 H   0  0  0  0  0  0
   -3.9163   -1.5898   -0.2901 H   0  0  0  0  0  0
   -4.8283    0.6267    0.3772 H   0  0  0  0  0  0
   -4.3511    0.3443    2.0432 H   0  0  0  0  0  0
   -1.9668    0.4634    1.4600 H   0  0  0  0  0  0
   -2.8393    1.8965    0.9680 H   0  0  0  0  0  0
   -3.0706    0.6459   -1.3636 H   0  0  0  0  0  0
   -1.6908    1.6299   -0.9654 H   0  0  0  0  0  0
   -1.6202   -0.9305   -1.9252 H   0  0  0  0  0  0
   -1.4742   -1.3065   -0.2411 H   0  0  0  0  0  0
    0.2397    0.8460   -1.4856 H   0  0  0  0  0  0
    2.0086   -1.0320   -1.9806 H   0  0  0  0  0  0
    0.5951   -2.0815   -2.0740 H   0  0  0  0  0  0
    1.2017   -1.1905   -4.2739 H   0  0  0  0  0  0
    1.0065    0.4718   -3.6981 H   0  0  0  0  0  0
   -0.4020   -0.6009   -3.8123 H   0  0  0  0  0  0
    2.0736   -1.3249    1.5256 H   0  0  0  0  0  0
    1.7969   -2.8331   -0.3206 H   0  0  0  0  0  0
    1.1722   -3.4931    1.1784 H   0  0  0  0  0  0
    0.0360   -2.9181   -0.0312 H   0  0  0  0  0  0
   -0.9361   -1.5709    1.9203 H   0  0  0  0  0  0
    0.3668   -2.0217    3.0154 H   0  0  0  0  0  0
    0.0202   -0.3181    2.7285 H   0  0  0  0  0  0
    3.3918    0.2760    1.7839 H   0  0  0  0  0  0
    3.0619    1.9738    2.0749 H   0  0  0  0  0  0
    1.9620    0.7780    2.7189 H   0  0  0  0  0  0
    0.3189    2.5873   -0.2244 H   0  0  0  0  0  0
    0.0020    2.0521    1.4381 H   0  0  0  0  0  0
    1.3132    3.1692    1.0973 H   0  0  0  0  0  0
    2.2596    1.4676   -1.5918 H   0  0  0  0  0  0
    3.4642    0.5313   -0.7180 H   0  0  0  0  0  0
    2.9616    3.4116   -0.5096 H   0  0  0  0  0  0
    0.6951   -0.0045    0.3754 N   0  3  1  0  0  0
   -0.1254    0.3425    0.8858 H   0  0  0  0  0  0
    3.5784    2.5971   -0.4858 N   0  3  0  0  0  0
    4.0804    2.5719    0.4096 H   0  0  0  0  0  0
    4.2550    2.6554   -1.2559 H   0  0  0  0  0  0
  1  2  1  0  0  0
  1 16  1  0  0  0
  1 17  1  0  0  0
  1 18  1  0  0  0
  2  3  1  0  0  0
  2 19  1  0  0  0
  2 20  1  0  0  0
  3  4  1  0  0  0
  3 21  1  0  0  0
  3 22  1  0  0  0
  4  5  1  0  0  0
  4 23  1  0  0  0
  4 24  1  0  0  0
  5  6  1  0  0  0
  5 25  1  0  0  0
  5 26  1  0  0  0
  6  7  1  0  0  0
  6 27  1  0  0  0
  6 49  1  0  0  0
  7  8  1  0  0  0
  7 28  1  0  0  0
  7 29  1  0  0  0
  8 30  1  0  0  0
  8 31  1  0  0  0
  8 32  1  0  0  0
  9 10  1  0  0  0
  9 11  1  0  0  0
  9 33  1  0  0  0
  9 49  1  0  0  0
 10 34  1  0  0  0
 10 35  1  0  0  0
 10 36  1  0  0  0
 11 37  1  0  0  0
 11 38  1  0  0  0
 11 39  1  0  0  0
 12 13  1  0  0  0
 12 14  1  0  0  0
 12 15  1  0  0  0
 12 49  1  0  0  0
 13 40  1  0  0  0
 13 41  1  0  0  0
 13 42  1  0  0  0
 14 43  1  0  0  0
 14 44  1  0  0  0
 14 45  1  0  0  0
 15 46  1  0  0  0
 15 47  1  0  0  0
 15 51  1  0  0  0
 48 51  1  0  0  0
 49 50  1  0  0  0
 51 52  1  0  0  0
 51 53  1  0  0  0
M  CHG  2  49   1  51   1
M  END
> <energy>
62.0605

> <chiral flag>
0

> <version>
0

> <i_ionizer_Ion_state_n>
3

> <i_ionizer_Tot_Q>
2

> <s_ionizer_Ion_centers>
49_51

> <s_ionizer_Ion_types>
N5_N5

> <s_ionizer_Ion_ctrs_in>
9_17

> <r_ionizer_Ionization_penalty>
0.481402

> <r_ionizer_Ionization_penalty_charging>
0.481402

> <r_ionizer_Ionization_penalty_neutral>
0

$$$$
ZINC001258437424
                    3D
 Structure written by MMmdl.
 53 52  0  0  1  0            999 V2000
   -5.5306    0.7269   -0.2236 C   0  0  0  0  0  0
   -4.1155    0.2811   -0.5647 C   0  0  0  0  0  0
   -3.6467   -0.8392    0.3648 C   0  0  0  0  0  0
   -2.2781   -1.4253   -0.0067 C   0  0  0  0  0  0
   -1.1251   -0.4214    0.1101 C   0  0  0  0  0  0
    0.2838   -1.0642    0.0631 C   0  0  1  0  0  0
    0.6039   -1.9023   -1.1963 C   0  0  0  0  0  0
    0.2873   -3.3886   -1.0521 C   0  0  0  0  0  0
    1.9688   -0.3237    1.7052 C   0  0  0  0  0  0
    2.2078    0.8510    2.6570 C   0  0  0  0  0  0
    3.2270   -1.1889    1.5671 C   0  0  0  0  0  0
    1.6755    1.1017   -0.4784 C   0  0  0  0  0  0
    3.2103    1.3067   -0.5679 C   0  0  0  0  0  0
    1.2432    0.9460   -1.9665 C   0  0  0  0  0  0
    1.0044    2.4161    0.0781 C   0  0  0  0  0  0
   -6.2334   -0.1080   -0.3028 H   0  0  0  0  0  0
   -5.8602    1.5132   -0.9108 H   0  0  0  0  0  0
   -5.5827    1.1239    0.7951 H   0  0  0  0  0  0
   -4.0887   -0.0610   -1.6063 H   0  0  0  0  0  0
   -3.4472    1.1453   -0.4889 H   0  0  0  0  0  0
   -3.6218   -0.4719    1.3990 H   0  0  0  0  0  0
   -4.3818   -1.6535    0.3379 H   0  0  0  0  0  0
   -2.3264   -1.8161   -1.0295 H   0  0  0  0  0  0
   -2.0918   -2.2758    0.6600 H   0  0  0  0  0  0
   -1.2267    0.1113    1.0660 H   0  0  0  0  0  0
   -1.2402    0.3235   -0.6791 H   0  0  0  0  0  0
    0.2633   -1.8058    0.8709 H   0  0  0  0  0  0
    0.0746   -1.5115   -2.0701 H   0  0  0  0  0  0
    1.6787   -1.8490   -1.4097 H   0  0  0  0  0  0
   -0.7793   -3.5707   -0.9087 H   0  0  0  0  0  0
    0.5990   -3.9248   -1.9546 H   0  0  0  0  0  0
    0.8288   -3.8265   -0.2072 H   0  0  0  0  0  0
    1.2715   -0.9360    2.2920 H   0  0  0  0  0  0
    2.9633    1.5544    2.3077 H   0  0  0  0  0  0
    2.5550    0.4796    3.6280 H   0  0  0  0  0  0
    1.2736    1.3891    2.8459 H   0  0  0  0  0  0
    3.0338   -2.0704    0.9466 H   0  0  0  0  0  0
    3.5438   -1.5538    2.5515 H   0  0  0  0  0  0
    4.0728   -0.6455    1.1382 H   0  0  0  0  0  0
    3.6674    1.5919    0.3801 H   0  0  0  0  0  0
    3.7067    0.3977   -0.9273 H   0  0  0  0  0  0
    3.4703    2.1034   -1.2757 H   0  0  0  0  0  0
    1.5491    1.8094   -2.5696 H   0  0  0  0  0  0
    0.1627    0.8588   -2.0941 H   0  0  0  0  0  0
    1.7320    0.0911   -2.4429 H   0  0  0  0  0  0
    1.3771    2.6347    1.0775 H   0  0  0  0  0  0
   -0.0780    2.2765    0.1696 H   0  0  0  0  0  0
    0.7200    3.5912   -1.5766 H   0  0  0  0  0  0
    1.5731   -0.2978    0.2490 N   0  3  2  0  0  0
    2.2837   -0.8684   -0.2239 H   0  0  0  0  0  0
    1.2329    3.6456   -0.6945 N   0  3  0  0  0  0
    0.9034    4.4550   -0.1555 H   0  0  0  0  0  0
    2.2362    3.7479   -0.8868 H   0  0  0  0  0  0
  1  2  1  0  0  0
  1 16  1  0  0  0
  1 17  1  0  0  0
  1 18  1  0  0  0
  2  3  1  0  0  0
  2 19  1  0  0  0
  2 20  1  0  0  0
  3  4  1  0  0  0
  3 21  1  0  0  0
  3 22  1  0  0  0
  4  5  1  0  0  0
  4 23  1  0  0  0
  4 24  1  0  0  0
  5  6  1  0  0  0
  5 25  1  0  0  0
  5 26  1  0  0  0
  6  7  1  0  0  0
  6 27  1  0  0  0
  6 49  1  0  0  0
  7  8  1  0  0  0
  7 28  1  0  0  0
  7 29  1  0  0  0
  8 30  1  0  0  0
  8 31  1  0  0  0
  8 32  1  0  0  0
  9 10  1  0  0  0
  9 11  1  0  0  0
  9 33  1  0  0  0
  9 49  1  0  0  0
 10 34  1  0  0  0
 10 35  1  0  0  0
 10 36  1  0  0  0
 11 37  1  0  0  0
 11 38  1  0  0  0
 11 39  1  0  0  0
 12 13  1  0  0  0
 12 14  1  0  0  0
 12 15  1  0  0  0
 12 49  1  0  0  0
 13 40  1  0  0  0
 13 41  1  0  0  0
 13 42  1  0  0  0
 14 43  1  0  0  0
 14 44  1  0  0  0
 14 45  1  0  0  0
 15 46  1  0  0  0
 15 47  1  0  0  0
 15 51  1  0  0  0
 48 51  1  0  0  0
 49 50  1  0  0  0
 51 52  1  0  0  0
 51 53  1  0  0  0
M  CHG  2  49   1  51   1
M  END
> <energy>
60.7446

> <chiral flag>
0

> <version>
0

> <i_ionizer_Ion_state_n>
3

> <i_ionizer_Tot_Q>
2

> <s_ionizer_Ion_centers>
49_51

> <s_ionizer_Ion_types>
N5_N5

> <s_ionizer_Ion_ctrs_in>
9_17

> <r_ionizer_Ionization_penalty>
0.481402

> <r_ionizer_Ionization_penalty_charging>
0.481402

> <r_ionizer_Ionization_penalty_neutral>
0

$$$$
ZINC001258437934
                    3D
 Structure written by MMmdl.
 46 46  0  0  1  0            999 V2000
   -3.3874    2.8101    1.5251 C   0  0  0  0  0  0
   -3.4104    1.5714    0.6434 C   0  0  0  0  0  0
   -2.6259    1.7716   -0.6583 C   0  0  0  0  0  0
   -2.6640    0.5373   -1.5662 C   0  0  0  0  0  0
   -1.4410   -0.3947   -1.5223 C   0  0  0  0  0  0
   -1.1475   -1.0407   -0.1550 C   0  0  1  0  0  0
   -0.7104   -2.5159   -0.2915 C   0  0  0  0  0  0
   -0.6762   -3.2400    1.0517 C   0  0  0  0  0  0
    0.9932    0.2645    0.2368 C   0  0  1  0  0  0
    1.8058    0.8865    1.3758 C   0  0  0  0  0  0
    3.1773    0.9319    0.9531 O   0  0  0  0  0  0
    3.3505    0.0117   -0.1423 C   0  0  0  0  0  0
    4.4795   -0.9575    0.2107 C   0  0  0  0  0  0
    3.7368    0.8350   -1.3722 C   0  0  0  0  0  0
    2.0119   -0.7171   -0.3156 C   0  0  0  0  0  0
   -3.9464    2.6207    2.4471 H   0  0  0  0  0  0
   -3.8484    3.6630    1.0197 H   0  0  0  0  0  0
   -2.3631    3.0801    1.7998 H   0  0  0  0  0  0
   -3.0078    0.7333    1.2158 H   0  0  0  0  0  0
   -4.4535    1.3230    0.4111 H   0  0  0  0  0  0
   -3.0898    2.6039   -1.2015 H   0  0  0  0  0  0
   -1.5952    2.0775   -0.4564 H   0  0  0  0  0  0
   -2.7563    0.8896   -2.6035 H   0  0  0  0  0  0
   -3.5715   -0.0482   -1.3705 H   0  0  0  0  0  0
   -1.6290   -1.1871   -2.2593 H   0  0  0  0  0  0
   -0.5714    0.1436   -1.9095 H   0  0  0  0  0  0
   -2.1078   -1.1121    0.3711 H   0  0  0  0  0  0
    0.2564   -2.6096   -0.7914 H   0  0  0  0  0  0
   -1.4257   -3.0438   -0.9331 H   0  0  0  0  0  0
   -1.6583   -3.2069    1.5379 H   0  0  0  0  0  0
    0.0535   -2.7912    1.7309 H   0  0  0  0  0  0
   -0.4007   -4.2897    0.9112 H   0  0  0  0  0  0
    0.8057    1.0513   -0.5029 H   0  0  0  0  0  0
    1.4681    1.8978    1.6259 H   0  0  0  0  0  0
    1.7639    0.2748    2.2837 H   0  0  0  0  0  0
    5.3947   -0.4154    0.4749 H   0  0  0  0  0  0
    4.2217   -1.5610    1.0892 H   0  0  0  0  0  0
    4.7011   -1.6368   -0.6186 H   0  0  0  0  0  0
    2.9964    1.6137   -1.5787 H   0  0  0  0  0  0
    3.8394    0.2073   -2.2623 H   0  0  0  0  0  0
    4.6884    1.3546   -1.2056 H   0  0  0  0  0  0
    1.8174   -0.9969   -1.3565 H   0  0  0  0  0  0
    2.0113   -1.6343    0.2862 H   0  0  0  0  0  0
   -0.2975   -0.2527    0.8086 N   0  3  0  0  0  0
   -0.8467    0.5512    1.1348 H   0  0  0  0  0  0
   -0.0727   -0.8597    1.6057 H   0  0  0  0  0  0
  1  2  1  0  0  0
  1 16  1  0  0  0
  1 17  1  0  0  0
  1 18  1  0  0  0
  2  3  1  0  0  0
  2 19  1  0  0  0
  2 20  1  0  0  0
  3  4  1  0  0  0
  3 21  1  0  0  0
  3 22  1  0  0  0
  4  5  1  0  0  0
  4 23  1  0  0  0
  4 24  1  0  0  0
  5  6  1  0  0  0
  5 25  1  0  0  0
  5 26  1  0  0  0
  6  7  1  0  0  0
  6 27  1  0  0  0
  6 44  1  0  0  0
  7  8  1  0  0  0
  7 28  1  0  0  0
  7 29  1  0  0  0
  8 30  1  0  0  0
  8 31  1  0  0  0
  8 32  1  0  0  0
  9 10  1  0  0  0
  9 15  1  0  0  0
  9 33  1  0  0  0
  9 44  1  0  0  0
 10 11  1  0  0  0
 10 34  1  0  0  0
 10 35  1  0  0  0
 11 12  1  0  0  0
 12 13  1  0  0  0
 12 14  1  0  0  0
 12 15  1  0  0  0
 13 36  1  0  0  0
 13 37  1  0  0  0
 13 38  1  0  0  0
 14 39  1  0  0  0
 14 40  1  0  0  0
 14 41  1  0  0  0
 15 42  1  0  0  0
 15 43  1  0  0  0
 44 45  1  0  0  0
 44 46  1  0  0  0
M  CHG  1  44   1
M  END
> <energy>
44.2231

> <chiral flag>
0

> <version>
0

> <i_ionizer_Ion_state_n>
1

> <i_ionizer_Tot_Q>
1

> <s_ionizer_Ion_centers>
44

> <s_ionizer_Ion_types>
N5

> <s_ionizer_Ion_ctrs_in>
9

> <r_ionizer_Ionization_penalty>
0.000148807

> <r_ionizer_Ionization_penalty_charging>
0.000148807

> <r_ionizer_Ionization_penalty_neutral>
0

$$$$
ZINC001258437936
                    3D
 Structure written by MMmdl.
 46 46  0  0  1  0            999 V2000
   -1.8817    3.8416    0.0311 C   0  0  0  0  0  0
   -2.2014    2.7705   -1.0049 C   0  0  0  0  0  0
   -3.1841    1.7251   -0.4752 C   0  0  0  0  0  0
   -2.5296    0.6705    0.4224 C   0  0  0  0  0  0
   -1.9285   -0.4942   -0.3766 C   0  0  0  0  0  0
   -1.2419   -1.5379    0.5334 C   0  0  1  0  0  0
   -1.0397   -2.8980   -0.1613 C   0  0  0  0  0  0
   -2.3429   -3.6775   -0.3102 C   0  0  0  0  0  0
    1.0192   -0.4300    0.3554 C   0  0  2  0  0  0
    1.6175   -1.1924   -0.8215 C   0  0  0  0  0  0
    2.8775   -0.5603   -1.1055 O   0  0  0  0  0  0
    3.3545    0.0710    0.0994 C   0  0  0  0  0  0
    3.5499    1.5582   -0.1977 C   0  0  0  0  0  0
    4.7015   -0.5542    0.4666 C   0  0  0  0  0  0
    2.2844   -0.1715    1.1706 C   0  0  0  0  0  0
   -1.2246    4.6048   -0.3984 H   0  0  0  0  0  0
   -2.7959    4.3422    0.3684 H   0  0  0  0  0  0
   -1.3785    3.4202    0.9060 H   0  0  0  0  0  0
   -2.6479    3.2661   -1.8751 H   0  0  0  0  0  0
   -1.2731    2.2994   -1.3489 H   0  0  0  0  0  0
   -3.6832    1.2372   -1.3193 H   0  0  0  0  0  0
   -3.9740    2.2348    0.0906 H   0  0  0  0  0  0
   -1.7786    1.1272    1.0716 H   0  0  0  0  0  0
   -3.3022    0.2611    1.0838 H   0  0  0  0  0  0
   -2.7476   -0.9706   -0.9297 H   0  0  0  0  0  0
   -1.2380   -0.1254   -1.1415 H   0  0  0  0  0  0
   -1.9322   -1.7326    1.3636 H   0  0  0  0  0  0
   -0.5954   -2.7720   -1.1514 H   0  0  0  0  0  0
   -0.3548   -3.5175    0.4307 H   0  0  0  0  0  0
   -2.1358   -4.6791   -0.6996 H   0  0  0  0  0  0
   -2.8479   -3.7882    0.6557 H   0  0  0  0  0  0
   -3.0328   -3.1878   -1.0040 H   0  0  0  0  0  0
    0.6475    0.5420    0.0016 H   0  0  0  0  0  0
    1.8227   -2.2392   -0.5692 H   0  0  0  0  0  0
    0.9892   -1.1537   -1.7159 H   0  0  0  0  0  0
    2.6262    2.0179   -0.5616 H   0  0  0  0  0  0
    3.8840    2.1033    0.6904 H   0  0  0  0  0  0
    4.2982    1.6997   -0.9869 H   0  0  0  0  0  0
    4.6014   -1.6330    0.6342 H   0  0  0  0  0  0
    5.4198   -0.4388   -0.3537 H   0  0  0  0  0  0
    5.1276   -0.0980    1.3662 H   0  0  0  0  0  0
    2.5367   -1.0624    1.7612 H   0  0  0  0  0  0
    2.1760    0.6650    1.8704 H   0  0  0  0  0  0
    0.0101   -1.0899    1.2442 N   0  3  0  0  0  0
   -0.2573   -0.4231    1.9778 H   0  0  0  0  0  0
    0.4488   -1.9130    1.6733 H   0  0  0  0  0  0
  1  2  1  0  0  0
  1 16  1  0  0  0
  1 17  1  0  0  0
  1 18  1  0  0  0
  2  3  1  0  0  0
  2 19  1  0  0  0
  2 20  1  0  0  0
  3  4  1  0  0  0
  3 21  1  0  0  0
  3 22  1  0  0  0
  4  5  1  0  0  0
  4 23  1  0  0  0
  4 24  1  0  0  0
  5  6  1  0  0  0
  5 25  1  0  0  0
  5 26  1  0  0  0
  6  7  1  0  0  0
  6 27  1  0  0  0
  6 44  1  0  0  0
  7  8  1  0  0  0
  7 28  1  0  0  0
  7 29  1  0  0  0
  8 30  1  0  0  0
  8 31  1  0  0  0
  8 32  1  0  0  0
  9 10  1  0  0  0
  9 15  1  0  0  0
  9 33  1  0  0  0
  9 44  1  0  0  0
 10 11  1  0  0  0
 10 34  1  0  0  0
 10 35  1  0  0  0
 11 12  1  0  0  0
 12 13  1  0  0  0
 12 14  1  0  0  0
 12 15  1  0  0  0
 13 36  1  0  0  0
 13 37  1  0  0  0
 13 38  1  0  0  0
 14 39  1  0  0  0
 14 40  1  0  0  0
 14 41  1  0  0  0
 15 42  1  0  0  0
 15 43  1  0  0  0
 44 45  1  0  0  0
 44 46  1  0  0  0
M  CHG  1  44   1
M  END
> <energy>
39.6656

> <chiral flag>
0

> <version>
0

> <i_ionizer_Ion_state_n>
1

> <i_ionizer_Tot_Q>
1

> <s_ionizer_Ion_centers>
44

> <s_ionizer_Ion_types>
N5

> <s_ionizer_Ion_ctrs_in>
9

> <r_ionizer_Ionization_penalty>
0.000148807

> <r_ionizer_Ionization_penalty_charging>
0.000148807

> <r_ionizer_Ionization_penalty_neutral>
0

$$$$
ZINC001258437937
                    3D
 Structure written by MMmdl.
 46 46  0  0  1  0            999 V2000
   -5.8156    1.2330    0.6996 C   0  0  0  0  0  0
   -4.3444    1.0590    0.3564 C   0  0  0  0  0  0
   -4.1099   -0.2402   -0.4159 C   0  0  0  0  0  0
   -2.6532   -0.4607   -0.8366 C   0  0  0  0  0  0
   -1.6748   -0.5527    0.3441 C   0  0  0  0  0  0
   -0.2562   -0.9981   -0.0937 C   0  0  2  0  0  0
   -0.0180   -2.5083    0.1310 C   0  0  0  0  0  0
   -0.9667   -3.4154   -0.6425 C   0  0  0  0  0  0
    2.0128   -0.0324    0.0822 C   0  0  1  0  0  0
    2.0266    0.8122   -1.1886 C   0  0  0  0  0  0
    3.3527    1.3449   -1.3126 O   0  0  0  0  0  0
    3.9752    1.3392   -0.0124 C   0  0  0  0  0  0
    5.2182    0.4528   -0.0997 C   0  0  0  0  0  0
    4.3812    2.7727    0.3303 C   0  0  0  0  0  0
    2.9341    0.7914    0.9705 C   0  0  0  0  0  0
   -6.1723    0.4080    1.3257 H   0  0  0  0  0  0
   -5.9686    2.1651    1.2513 H   0  0  0  0  0  0
   -6.4299    1.2657   -0.2063 H   0  0  0  0  0  0
   -4.0095    1.9128   -0.2431 H   0  0  0  0  0  0
   -3.7656    1.0654    1.2863 H   0  0  0  0  0  0
   -4.4469   -1.0936    0.1835 H   0  0  0  0  0  0
   -4.7273   -0.2331   -1.3232 H   0  0  0  0  0  0
   -2.6149   -1.3770   -1.4348 H   0  0  0  0  0  0
   -2.3409    0.3541   -1.5028 H   0  0  0  0  0  0
   -1.6196    0.4415    0.8060 H   0  0  0  0  0  0
   -2.0654   -1.2264    1.1172 H   0  0  0  0  0  0
   -0.1336   -0.7627   -1.1566 H   0  0  0  0  0  0
    1.0060   -2.7654   -0.1644 H   0  0  0  0  0  0
   -0.1010   -2.7506    1.2002 H   0  0  0  0  0  0
   -1.9868   -3.3416   -0.2530 H   0  0  0  0  0  0
   -0.6544   -4.4608   -0.5427 H   0  0  0  0  0  0
   -0.9776   -3.1707   -1.7100 H   0  0  0  0  0  0
    2.4933   -0.9984   -0.1092 H   0  0  0  0  0  0
    1.3327    1.6584   -1.1263 H   0  0  0  0  0  0
    1.7861    0.2300   -2.0823 H   0  0  0  0  0  0
    4.9610   -0.5643   -0.4133 H   0  0  0  0  0  0
    5.7398    0.3960    0.8609 H   0  0  0  0  0  0
    5.9195    0.8391   -0.8495 H   0  0  0  0  0  0
    4.8285    2.8376    1.3275 H   0  0  0  0  0  0
    5.1012    3.1620   -0.3996 H   0  0  0  0  0  0
    3.5163    3.4450    0.2915 H   0  0  0  0  0  0
    3.3783    0.2031    1.7815 H   0  0  0  0  0  0
    2.3758    1.6172    1.4327 H   0  0  0  0  0  0
    0.6972   -0.2070    0.7421 N   0  3  0  0  0  0
    0.2912    0.7193    0.9190 H   0  0  0  0  0  0
    0.8378   -0.6952    1.6344 H   0  0  0  0  0  0
  1  2  1  0  0  0
  1 16  1  0  0  0
  1 17  1  0  0  0
  1 18  1  0  0  0
  2  3  1  0  0  0
  2 19  1  0  0  0
  2 20  1  0  0  0
  3  4  1  0  0  0
  3 21  1  0  0  0
  3 22  1  0  0  0
  4  5  1  0  0  0
  4 23  1  0  0  0
  4 24  1  0  0  0
  5  6  1  0  0  0
  5 25  1  0  0  0
  5 26  1  0  0  0
  6  7  1  0  0  0
  6 27  1  0  0  0
  6 44  1  0  0  0
  7  8  1  0  0  0
  7 28  1  0  0  0
  7 29  1  0  0  0
  8 30  1  0  0  0
  8 31  1  0  0  0
  8 32  1  0  0  0
  9 10  1  0  0  0
  9 15  1  0  0  0
  9 33  1  0  0  0
  9 44  1  0  0  0
 10 11  1  0  0  0
 10 34  1  0  0  0
 10 35  1  0  0  0
 11 12  1  0  0  0
 12 13  1  0  0  0
 12 14  1  0  0  0
 12 15  1  0  0  0
 13 36  1  0  0  0
 13 37  1  0  0  0
 13 38  1  0  0  0
 14 39  1  0  0  0
 14 40  1  0  0  0
 14 41  1  0  0  0
 15 42  1  0  0  0
 15 43  1  0  0  0
 44 45  1  0  0  0
 44 46  1  0  0  0
M  CHG  1  44   1
M  END
> <energy>
37.3953

> <chiral flag>
0

> <version>
0

> <i_ionizer_Ion_state_n>
1

> <i_ionizer_Tot_Q>
1

> <s_ionizer_Ion_centers>
44

> <s_ionizer_Ion_types>
N5

> <s_ionizer_Ion_ctrs_in>
9

> <r_ionizer_Ionization_penalty>
0.000148807

> <r_ionizer_Ionization_penalty_charging>
0.000148807

> <r_ionizer_Ionization_penalty_neutral>
0

$$$$
ZINC001258437941
                    3D
 Structure written by MMmdl.
 46 46  0  0  1  0            999 V2000
    2.5806   -0.3498   -2.3923 C   0  0  0  0  0  0
    2.0004   -1.7290   -2.1145 C   0  0  0  0  0  0
    0.5286   -1.8777   -2.5181 C   0  0  0  0  0  0
   -0.4639   -0.8746   -1.9230 C   0  0  0  0  0  0
   -1.1195   -1.2515   -0.5838 C   0  0  0  0  0  0
   -0.1791   -1.3659    0.6349 C   0  0  2  0  0  0
    0.0636   -2.8601    0.9999 C   0  0  0  0  0  0
   -1.1143   -3.5941    1.6397 C   0  0  0  0  0  0
   -0.6740    0.8022    1.8554 C   0  0  2  0  0  0
   -1.9975    1.4907    1.5487 C   0  0  0  0  0  0
   -1.6657    2.8786    1.3833 O   0  0  0  0  0  0
   -0.3406    2.9581    0.8133 C   0  0  0  0  0  0
    0.4252    4.0732    1.5256 C   0  0  0  0  0  0
   -0.4974    3.2937   -0.6734 C   0  0  0  0  0  0
    0.3226    1.5857    1.0106 C   0  0  0  0  0  0
    2.1830    0.3992   -1.7000 H   0  0  0  0  0  0
    3.6691   -0.3665   -2.2651 H   0  0  0  0  0  0
    2.3635   -0.0270   -3.4167 H   0  0  0  0  0  0
    2.5784   -2.4625   -2.6894 H   0  0  0  0  0  0
    2.1487   -1.9861   -1.0627 H   0  0  0  0  0  0
    0.4877   -1.7664   -3.6111 H   0  0  0  0  0  0
    0.1961   -2.9007   -2.3100 H   0  0  0  0  0  0
   -1.2897   -0.7909   -2.6432 H   0  0  0  0  0  0
   -0.0354    0.1288   -1.8729 H   0  0  0  0  0  0
   -1.6845   -2.1797   -0.7280 H   0  0  0  0  0  0
   -1.8820   -0.4919   -0.4028 H   0  0  0  0  0  0
    0.8058   -0.9628    0.3913 H   0  0  0  0  0  0
    0.3639   -3.4047    0.0966 H   0  0  0  0  0  0
    0.9140   -2.9194    1.6923 H   0  0  0  0  0  0
   -1.9923   -3.6141    0.9869 H   0  0  0  0  0  0
   -0.8300   -4.6320    1.8450 H   0  0  0  0  0  0
   -1.4026   -3.1486    2.5970 H   0  0  0  0  0  0
   -0.4478    1.0707    2.8970 H   0  0  0  0  0  0
   -2.4665    1.1467    0.6246 H   0  0  0  0  0  0
   -2.7229    1.3817    2.3618 H   0  0  0  0  0  0
    1.4659    4.1217    1.1898 H   0  0  0  0  0  0
    0.4175    3.9228    2.6122 H   0  0  0  0  0  0
   -0.0395    5.0502    1.3472 H   0  0  0  0  0  0
   -1.0565    2.5077   -1.1946 H   0  0  0  0  0  0
    0.4710    3.4153   -1.1666 H   0  0  0  0  0  0
   -1.0702    4.2176   -0.8088 H   0  0  0  0  0  0
    0.5053    1.1260    0.0396 H   0  0  0  0  0  0
    1.2993    1.6500    1.5060 H   0  0  0  0  0  0
   -0.7000   -0.7040    1.8896 N   0  3  0  0  0  0
   -1.6712   -1.0052    2.0322 H   0  0  0  0  0  0
   -0.1250   -1.0172    2.6805 H   0  0  0  0  0  0
  1  2  1  0  0  0
  1 16  1  0  0  0
  1 17  1  0  0  0
  1 18  1  0  0  0
  2  3  1  0  0  0
  2 19  1  0  0  0
  2 20  1  0  0  0
  3  4  1  0  0  0
  3 21  1  0  0  0
  3 22  1  0  0  0
  4  5  1  0  0  0
  4 23  1  0  0  0
  4 24  1  0  0  0
  5  6  1  0  0  0
  5 25  1  0  0  0
  5 26  1  0  0  0
  6  7  1  0  0  0
  6 27  1  0  0  0
  6 44  1  0  0  0
  7  8  1  0  0  0
  7 28  1  0  0  0
  7 29  1  0  0  0
  8 30  1  0  0  0
  8 31  1  0  0  0
  8 32  1  0  0  0
  9 10  1  0  0  0
  9 15  1  0  0  0
  9 33  1  0  0  0
  9 44  1  0  0  0
 10 11  1  0  0  0
 10 34  1  0  0  0
 10 35  1  0  0  0
 11 12  1  0  0  0
 12 13  1  0  0  0
 12 14  1  0  0  0
 12 15  1  0  0  0
 13 36  1  0  0  0
 13 37  1  0  0  0
 13 38  1  0  0  0
 14 39  1  0  0  0
 14 40  1  0  0  0
 14 41  1  0  0  0
 15 42  1  0  0  0
 15 43  1  0  0  0
 44 45  1  0  0  0
 44 46  1  0  0  0
M  CHG  1  44   1
M  END
> <energy>
51.0831

> <chiral flag>
0

> <version>
0

> <i_ionizer_Ion_state_n>
1

> <i_ionizer_Tot_Q>
1

> <s_ionizer_Ion_centers>
44

> <s_ionizer_Ion_types>
N5

> <s_ionizer_Ion_ctrs_in>
9

> <r_ionizer_Ionization_penalty>
0.000148807

> <r_ionizer_Ionization_penalty_charging>
0.000148807

> <r_ionizer_Ionization_penalty_neutral>
0

$$$$
ZINC001258438014
                    3D
 Structure written by MMmdl.
 41 41  0  0  1  0            999 V2000
    2.3281   -0.2295    2.9566 C   0  0  0  0  0  0
    1.6426   -1.2715    2.0881 C   0  0  0  0  0  0
    1.4511   -0.7684    0.6583 C   0  0  0  0  0  0
    0.7230   -1.7734   -0.2323 C   0  0  0  0  0  0
   -0.7112   -2.1195    0.1831 C   0  0  0  0  0  0
   -1.8314   -1.0691   -0.0309 C   0  0  1  0  0  0
   -1.9430   -0.0332    1.1085 C   0  0  0  0  0  0
   -3.3685    0.5091    1.2382 C   0  0  0  0  0  0
   -1.7062    0.8231   -1.7266 C   0  0  0  0  0  0
   -0.2630    1.2280   -1.9394 C   0  0  0  0  0  0
    0.2995    2.2553   -1.1987 C   0  0  0  0  0  0
    1.6307    2.5612   -1.4215 C   0  0  0  0  0  0
    2.2066    3.5376   -0.7026 F   0  0  0  0  0  0
    2.3742    1.8846   -2.3690 C   0  0  0  0  0  0
    1.7323    0.8949   -3.0831 C   0  0  0  0  0  0
    0.4362    0.5561   -2.8932 N   0  0  0  0  0  0
    2.4510   -0.6159    3.9739 H   0  0  0  0  0  0
    3.3180    0.0273    2.5627 H   0  0  0  0  0  0
    1.7267    0.6857    3.0087 H   0  0  0  0  0  0
    2.2364   -2.1931    2.0856 H   0  0  0  0  0  0
    0.6809   -1.5098    2.5499 H   0  0  0  0  0  0
    2.4350   -0.5656    0.2159 H   0  0  0  0  0  0
    0.9224    0.1873    0.6693 H   0  0  0  0  0  0
    1.3095   -2.7021   -0.2466 H   0  0  0  0  0  0
    0.7406   -1.4227   -1.2647 H   0  0  0  0  0  0
   -0.7275   -2.4592    1.2258 H   0  0  0  0  0  0
   -0.9937   -3.0142   -0.3918 H   0  0  0  0  0  0
   -2.7418   -1.6778    0.0752 H   0  0  0  0  0  0
   -1.2423    0.7939    0.9678 H   0  0  0  0  0  0
   -1.6766   -0.4917    2.0702 H   0  0  0  0  0  0
   -4.0416   -0.2725    1.6018 H   0  0  0  0  0  0
   -3.7625    0.8708    0.2857 H   0  0  0  0  0  0
   -3.4028    1.3373    1.9488 H   0  0  0  0  0  0
   -2.1883    1.4931   -1.0105 H   0  0  0  0  0  0
   -2.2204    1.0235   -2.6751 H   0  0  0  0  0  0
   -0.2661    2.7953   -0.4486 H   0  0  0  0  0  0
    3.4165    2.1281   -2.5387 H   0  0  0  0  0  0
    2.2537    0.3277   -3.8505 H   0  0  0  0  0  0
   -1.9326   -0.6429   -1.4751 N   0  3  0  0  0  0
   -1.2329   -1.1691   -2.0117 H   0  0  0  0  0  0
   -2.8726   -0.8816   -1.8120 H   0  0  0  0  0  0
  1  2  1  0  0  0
  1 17  1  0  0  0
  1 18  1  0  0  0
  1 19  1  0  0  0
  2  3  1  0  0  0
  2 20  1  0  0  0
  2 21  1  0  0  0
  3  4  1  0  0  0
  3 22  1  0  0  0
  3 23  1  0  0  0
  4  5  1  0  0  0
  4 24  1  0  0  0
  4 25  1  0  0  0
  5  6  1  0  0  0
  5 26  1  0  0  0
  5 27  1  0  0  0
  6  7  1  0  0  0
  6 28  1  0  0  0
  6 39  1  0  0  0
  7  8  1  0  0  0
  7 29  1  0  0  0
  7 30  1  0  0  0
  8 31  1  0  0  0
  8 32  1  0  0  0
  8 33  1  0  0  0
  9 10  1  0  0  0
  9 34  1  0  0  0
  9 35  1  0  0  0
  9 39  1  0  0  0
 10 11  2  0  0  0
 10 16  1  0  0  0
 11 12  1  0  0  0
 11 36  1  0  0  0
 12 13  1  0  0  0
 12 14  2  0  0  0
 14 15  1  0  0  0
 14 37  1  0  0  0
 15 16  2  0  0  0
 15 38  1  0  0  0
 39 40  1  0  0  0
 39 41  1  0  0  0
M  CHG  1  39   1
M  END
> <energy>
24.2616

> <chiral flag>
0

> <version>
0

> <i_ionizer_Ion_state_n>
1

> <i_ionizer_Tot_Q>
1

> <s_ionizer_Ion_centers>
39

> <s_ionizer_Ion_types>
N5

> <s_ionizer_Ion_ctrs_in>
9

> <r_ionizer_Ionization_penalty>
0.0075612

> <r_ionizer_Ionization_penalty_charging>
0.000148807

> <r_ionizer_Ionization_penalty_neutral>
0.00741239

$$$$
ZINC001258438015
                    3D
 Structure written by MMmdl.
 41 41  0  0  1  0            999 V2000
   -2.5230    3.2125   -1.4313 C   0  0  0  0  0  0
   -1.8907    2.5814   -0.2021 C   0  0  0  0  0  0
   -2.0066    1.0576   -0.2329 C   0  0  0  0  0  0
   -1.4462    0.4252    1.0458 C   0  0  0  0  0  0
   -1.4993   -1.1100    1.0001 C   0  0  0  0  0  0
   -0.3330   -1.7471    0.2041 C   0  0  2  0  0  0
   -0.6800   -3.1786   -0.2593 C   0  0  0  0  0  0
   -1.7088   -3.2137   -1.3826 C   0  0  0  0  0  0
    2.1163   -1.7277    0.3225 C   0  0  0  0  0  0
    2.6358   -0.3033    0.2486 C   0  0  0  0  0  0
    3.4439    0.1878    1.2666 C   0  0  0  0  0  0
    3.8334    1.5169    1.2054 C   0  0  0  0  0  0
    4.6102    2.0198    2.1745 F   0  0  0  0  0  0
    3.4206    2.3350    0.1706 C   0  0  0  0  0  0
    2.6096    1.7710   -0.7939 C   0  0  0  0  0  0
    2.2093    0.4800   -0.7757 N   0  0  0  0  0  0
   -3.5945    2.9924   -1.4774 H   0  0  0  0  0  0
   -2.0551    2.8443   -2.3490 H   0  0  0  0  0  0
   -2.4033    4.2996   -1.4010 H   0  0  0  0  0  0
   -2.3799    2.9766    0.6958 H   0  0  0  0  0  0
   -0.8329    2.8665   -0.1540 H   0  0  0  0  0  0
   -3.0625    0.7737   -0.3415 H   0  0  0  0  0  0
   -1.4788    0.6719   -1.1125 H   0  0  0  0  0  0
   -2.0548    0.7671    1.8921 H   0  0  0  0  0  0
   -0.4244    0.7764    1.2280 H   0  0  0  0  0  0
   -1.4831   -1.4888    2.0319 H   0  0  0  0  0  0
   -2.4704   -1.4149    0.5926 H   0  0  0  0  0  0
   -0.1252   -1.1255   -0.6745 H   0  0  0  0  0  0
   -1.0445   -3.7762    0.5851 H   0  0  0  0  0  0
    0.2219   -3.6791   -0.6317 H   0  0  0  0  0  0
   -1.7982   -4.2336   -1.7693 H   0  0  0  0  0  0
   -2.6997   -2.9059   -1.0397 H   0  0  0  0  0  0
   -1.4103   -2.5645   -2.2112 H   0  0  0  0  0  0
    2.0327   -2.1434   -0.6889 H   0  0  0  0  0  0
    2.8666   -2.3455    0.8318 H   0  0  0  0  0  0
    3.7607   -0.4341    2.0966 H   0  0  0  0  0  0
    3.7168    3.3744    0.1296 H   0  0  0  0  0  0
    2.2392    2.3582   -1.6286 H   0  0  0  0  0  0
    0.8535   -1.8293    1.0983 N   0  3  0  0  0  0
    0.8149   -1.0608    1.7781 H   0  0  0  0  0  0
    0.8369   -2.7274    1.5957 H   0  0  0  0  0  0
  1  2  1  0  0  0
  1 17  1  0  0  0
  1 18  1  0  0  0
  1 19  1  0  0  0
  2  3  1  0  0  0
  2 20  1  0  0  0
  2 21  1  0  0  0
  3  4  1  0  0  0
  3 22  1  0  0  0
  3 23  1  0  0  0
  4  5  1  0  0  0
  4 24  1  0  0  0
  4 25  1  0  0  0
  5  6  1  0  0  0
  5 26  1  0  0  0
  5 27  1  0  0  0
  6  7  1  0  0  0
  6 28  1  0  0  0
  6 39  1  0  0  0
  7  8  1  0  0  0
  7 29  1  0  0  0
  7 30  1  0  0  0
  8 31  1  0  0  0
  8 32  1  0  0  0
  8 33  1  0  0  0
  9 10  1  0  0  0
  9 34  1  0  0  0
  9 35  1  0  0  0
  9 39  1  0  0  0
 10 11  2  0  0  0
 10 16  1  0  0  0
 11 12  1  0  0  0
 11 36  1  0  0  0
 12 13  1  0  0  0
 12 14  2  0  0  0
 14 15  1  0  0  0
 14 37  1  0  0  0
 15 16  2  0  0  0
 15 38  1  0  0  0
 39 40  1  0  0  0
 39 41  1  0  0  0
M  CHG  1  39   1
M  END
> <energy>
15.7223

> <chiral flag>
0

> <version>
0

> <i_ionizer_Ion_state_n>
1

> <i_ionizer_Tot_Q>
1

> <s_ionizer_Ion_centers>
39

> <s_ionizer_Ion_types>
N5

> <s_ionizer_Ion_ctrs_in>
9

> <r_ionizer_Ionization_penalty>
0.0075612

> <r_ionizer_Ionization_penalty_charging>
0.000148807

> <r_ionizer_Ionization_penalty_neutral>
0.00741239

$$$$
ZINC001258438907
                    3D
 Structure written by MMmdl.
 43 43  0  0  1  0            999 V2000
   -3.8685    1.5798    0.6744 C   0  0  0  0  0  0
   -2.9721    0.6687    1.4968 C   0  0  0  0  0  0
   -2.3461   -0.4313    0.6367 C   0  0  0  0  0  0
   -1.4391   -1.3465    1.4713 C   0  0  0  0  0  0
   -0.8022   -2.4705    0.6344 C   0  0  0  0  0  0
    0.4005   -2.0103   -0.2218 C   0  0  2  0  0  0
    0.7197   -3.0115   -1.3506 C   0  0  0  0  0  0
   -0.3027   -2.9805   -2.4799 C   0  0  0  0  0  0
    2.3768   -0.6939    0.2727 C   0  0  0  0  0  0
    1.6965    0.4473    0.7796 O   0  0  0  0  0  0
    2.0040    1.6614    0.2438 C   0  0  0  0  0  0
    1.0942    2.6739    0.5556 C   0  0  0  0  0  0
    1.2727    3.9664    0.0665 C   0  0  0  0  0  0
    2.3757    4.2551   -0.7351 C   0  0  0  0  0  0
    3.2941    3.2502   -1.0428 C   0  0  0  0  0  0
    3.1122    1.9553   -0.5510 C   0  0  0  0  0  0
   -4.6754    1.0157    0.1963 H   0  0  0  0  0  0
   -4.3221    2.3392    1.3185 H   0  0  0  0  0  0
   -3.2942    2.0926   -0.1027 H   0  0  0  0  0  0
   -2.1782    1.2695    1.9577 H   0  0  0  0  0  0
   -3.5625    0.2223    2.3059 H   0  0  0  0  0  0
   -3.1441   -1.0330    0.1819 H   0  0  0  0  0  0
   -1.7772    0.0276   -0.1808 H   0  0  0  0  0  0
   -2.0495   -1.8109    2.2561 H   0  0  0  0  0  0
   -0.6707   -0.7519    1.9801 H   0  0  0  0  0  0
   -0.4759   -3.2657    1.3192 H   0  0  0  0  0  0
   -1.5807   -2.9200    0.0070 H   0  0  0  0  0  0
    0.1481   -1.0462   -0.6791 H   0  0  0  0  0  0
    0.7862   -4.0335   -0.9577 H   0  0  0  0  0  0
    1.6968   -2.7790   -1.7921 H   0  0  0  0  0  0
   -1.2664   -3.3906   -2.1677 H   0  0  0  0  0  0
   -0.4608   -1.9587   -2.8413 H   0  0  0  0  0  0
    0.0577   -3.5816   -3.3217 H   0  0  0  0  0  0
    3.3627   -0.7620    0.7518 H   0  0  0  0  0  0
    2.5245   -0.6455   -0.8132 H   0  0  0  0  0  0
    0.2310    2.4501    1.1778 H   0  0  0  0  0  0
    0.5574    4.7483    0.3141 H   0  0  0  0  0  0
    2.5229    5.2599   -1.1169 H   0  0  0  0  0  0
    4.1572    3.4767   -1.6659 H   0  0  0  0  0  0
    3.8552    1.2034   -0.7962 H   0  0  0  0  0  0
    1.6108   -1.8971    0.6313 N   0  3  0  0  0  0
    1.3267   -1.8368    1.6162 H   0  0  0  0  0  0
    2.2000   -2.7269    0.4953 H   0  0  0  0  0  0
  1  2  1  0  0  0
  1 17  1  0  0  0
  1 18  1  0  0  0
  1 19  1  0  0  0
  2  3  1  0  0  0
  2 20  1  0  0  0
  2 21  1  0  0  0
  3  4  1  0  0  0
  3 22  1  0  0  0
  3 23  1  0  0  0
  4  5  1  0  0  0
  4 24  1  0  0  0
  4 25  1  0  0  0
  5  6  1  0  0  0
  5 26  1  0  0  0
  5 27  1  0  0  0
  6  7  1  0  0  0
  6 28  1  0  0  0
  6 41  1  0  0  0
  7  8  1  0  0  0
  7 29  1  0  0  0
  7 30  1  0  0  0
  8 31  1  0  0  0
  8 32  1  0  0  0
  8 33  1  0  0  0
  9 10  1  0  0  0
  9 34  1  0  0  0
  9 35  1  0  0  0
  9 41  1  0  0  0
 10 11  1  0  0  0
 11 12  2  0  0  0
 11 16  1  0  0  0
 12 13  1  0  0  0
 12 36  1  0  0  0
 13 14  2  0  0  0
 13 37  1  0  0  0
 14 15  1  0  0  0
 14 38  1  0  0  0
 15 16  2  0  0  0
 15 39  1  0  0  0
 16 40  1  0  0  0
 41 42  1  0  0  0
 41 43  1  0  0  0
M  CHG  1  41   1
M  END
> <energy>
3.11133

> <chiral flag>
0

> <version>
0

> <i_ionizer_Ion_state_n>
1

> <i_ionizer_Tot_Q>
1

> <s_ionizer_Ion_centers>
41

> <s_ionizer_Ion_types>
N5

> <s_ionizer_Ion_ctrs_in>
9

> <r_ionizer_Ionization_penalty>
0.000148807

> <r_ionizer_Ionization_penalty_charging>
0.000148807

> <r_ionizer_Ionization_penalty_neutral>
0

$$$$
ZINC001258438908
                    3D
 Structure written by MMmdl.
 43 43  0  0  1  0            999 V2000
   -4.6746    0.7453   -0.3813 C   0  0  0  0  0  0
   -3.4124   -0.0462   -0.6897 C   0  0  0  0  0  0
   -2.6065   -0.3378    0.5770 C   0  0  0  0  0  0
   -1.3355   -1.1375    0.2685 C   0  0  0  0  0  0
   -0.5779   -1.4745    1.5543 C   0  0  0  0  0  0
    0.8879   -1.9361    1.3878 C   0  0  1  0  0  0
    1.0328   -3.3479    0.7705 C   0  0  0  0  0  0
    0.9835   -3.4468   -0.7497 C   0  0  0  0  0  0
    1.7990    0.3340    1.3080 C   0  0  0  0  0  0
    2.8891    1.0943    0.7744 O   0  0  0  0  0  0
    2.4601    2.0125   -0.1445 C   0  0  0  0  0  0
    2.1000    1.6216   -1.4338 C   0  0  0  0  0  0
    1.7199    2.5864   -2.3667 C   0  0  0  0  0  0
    1.7057    3.9356   -2.0069 C   0  0  0  0  0  0
    2.0680    4.3224   -0.7142 C   0  0  0  0  0  0
    2.4582    3.3595    0.2154 C   0  0  0  0  0  0
   -5.3294    0.1891    0.2974 H   0  0  0  0  0  0
   -4.4346    1.7069    0.0836 H   0  0  0  0  0  0
   -5.2298    0.9400   -1.3040 H   0  0  0  0  0  0
   -2.7968    0.5177   -1.4013 H   0  0  0  0  0  0
   -3.6913   -0.9876   -1.1779 H   0  0  0  0  0  0
   -3.2275   -0.8933    1.2897 H   0  0  0  0  0  0
   -2.3335    0.6084    1.0596 H   0  0  0  0  0  0
   -0.7076   -0.5591   -0.4181 H   0  0  0  0  0  0
   -1.6148   -2.0631   -0.2442 H   0  0  0  0  0  0
   -0.5896   -0.5984    2.2155 H   0  0  0  0  0  0
   -1.1354   -2.2461    2.1002 H   0  0  0  0  0  0
    1.2815   -2.0341    2.4097 H   0  0  0  0  0  0
    2.0023   -3.7560    1.0870 H   0  0  0  0  0  0
    0.2734   -4.0141    1.1972 H   0  0  0  0  0  0
    0.0155   -3.1514   -1.1551 H   0  0  0  0  0  0
    1.7575   -2.8330   -1.2198 H   0  0  0  0  0  0
    1.1626   -4.4835   -1.0558 H   0  0  0  0  0  0
    2.0067    0.2299    2.3791 H   0  0  0  0  0  0
    0.8485    0.8744    1.2116 H   0  0  0  0  0  0
    2.1249    0.5733   -1.7142 H   0  0  0  0  0  0
    1.4424    2.2880   -3.3739 H   0  0  0  0  0  0
    1.4193    4.6885   -2.7367 H   0  0  0  0  0  0
    2.0594    5.3732   -0.4375 H   0  0  0  0  0  0
    2.7536    3.6548    1.2171 H   0  0  0  0  0  0
    1.7593   -0.9857    0.6544 N   0  3  0  0  0  0
    2.7117   -1.3677    0.6183 H   0  0  0  0  0  0
    1.3992   -0.8732   -0.3005 H   0  0  0  0  0  0
  1  2  1  0  0  0
  1 17  1  0  0  0
  1 18  1  0  0  0
  1 19  1  0  0  0
  2  3  1  0  0  0
  2 20  1  0  0  0
  2 21  1  0  0  0
  3  4  1  0  0  0
  3 22  1  0  0  0
  3 23  1  0  0  0
  4  5  1  0  0  0
  4 24  1  0  0  0
  4 25  1  0  0  0
  5  6  1  0  0  0
  5 26  1  0  0  0
  5 27  1  0  0  0
  6  7  1  0  0  0
  6 28  1  0  0  0
  6 41  1  0  0  0
  7  8  1  0  0  0
  7 29  1  0  0  0
  7 30  1  0  0  0
  8 31  1  0  0  0
  8 32  1  0  0  0
  8 33  1  0  0  0
  9 10  1  0  0  0
  9 34  1  0  0  0
  9 35  1  0  0  0
  9 41  1  0  0  0
 10 11  1  0  0  0
 11 12  2  0  0  0
 11 16  1  0  0  0
 12 13  1  0  0  0
 12 36  1  0  0  0
 13 14  2  0  0  0
 13 37  1  0  0  0
 14 15  1  0  0  0
 14 38  1  0  0  0
 15 16  2  0  0  0
 15 39  1  0  0  0
 16 40  1  0  0  0
 41 42  1  0  0  0
 41 43  1  0  0  0
M  CHG  1  41   1
M  END
> <energy>
6.48821

> <chiral flag>
0

> <version>
0

> <i_ionizer_Ion_state_n>
1

> <i_ionizer_Tot_Q>
1

> <s_ionizer_Ion_centers>
41

> <s_ionizer_Ion_types>
N5

> <s_ionizer_Ion_ctrs_in>
9

> <r_ionizer_Ionization_penalty>
0.000148807

> <r_ionizer_Ionization_penalty_charging>
0.000148807

> <r_ionizer_Ionization_penalty_neutral>
0

$$$$
ZINC001258438921
                    3D
 Structure written by MMmdl.
 49 49  0  0  1  0            999 V2000
   -1.9313   -4.3969   -1.1251 C   0  0  0  0  0  0
   -1.3683   -2.9898   -1.0243 C   0  0  0  0  0  0
   -2.3079   -2.0744   -0.2436 C   0  0  0  0  0  0
   -1.7307   -0.6611   -0.1435 C   0  0  0  0  0  0
   -2.6395    0.2489    0.6857 C   0  0  0  0  0  0
   -2.4103    1.7761    0.5641 C   0  0  2  0  0  0
   -2.5326    2.3543   -0.8635 C   0  0  0  0  0  0
   -3.8593    2.0249   -1.5405 C   0  0  0  0  0  0
    0.0836    1.9362    0.6735 C   0  0  0  0  0  0
    0.9625    1.0662    1.5910 C   0  0  0  0  0  0
    1.8827    0.2808    0.8282 O   0  0  0  0  0  0
    3.0552    0.9926    0.4267 C   0  0  0  0  0  0
    3.5559    0.3918   -0.8891 C   0  0  0  0  0  0
    4.5830   -0.6797   -0.5105 C   0  0  0  0  0  0
    4.6570   -0.6786    1.0109 C   0  0  0  0  0  0
    4.1841    0.7122    1.4102 C   0  0  0  0  0  0
   -2.8659   -4.4033   -1.6954 H   0  0  0  0  0  0
   -2.1333   -4.8138   -0.1325 H   0  0  0  0  0  0
   -1.2190   -5.0558   -1.6324 H   0  0  0  0  0  0
   -1.2083   -2.5949   -2.0341 H   0  0  0  0  0  0
   -0.3894   -3.0249   -0.5343 H   0  0  0  0  0  0
   -3.2834   -2.0376   -0.7454 H   0  0  0  0  0  0
   -2.4741   -2.4804    0.7629 H   0  0  0  0  0  0
   -0.7412   -0.7231    0.3190 H   0  0  0  0  0  0
   -1.6007   -0.2611   -1.1541 H   0  0  0  0  0  0
   -3.6848    0.0423    0.4205 H   0  0  0  0  0  0
   -2.5569   -0.0419    1.7424 H   0  0  0  0  0  0
   -3.2446    2.2228    1.1245 H   0  0  0  0  0  0
   -1.7208    2.0134   -1.5131 H   0  0  0  0  0  0
   -2.4453    3.4469   -0.8074 H   0  0  0  0  0  0
   -3.9510    2.5844   -2.4779 H   0  0  0  0  0  0
   -3.9344    0.9597   -1.7810 H   0  0  0  0  0  0
   -4.7094    2.2968   -0.9054 H   0  0  0  0  0  0
    0.0012    1.4707   -0.3128 H   0  0  0  0  0  0
    0.6147    2.8785    0.4971 H   0  0  0  0  0  0
    0.3393    0.3478    2.1342 H   0  0  0  0  0  0
    1.4846    1.6696    2.3439 H   0  0  0  0  0  0
    2.8481    2.0612    0.3170 H   0  0  0  0  0  0
    4.0495    1.1632   -1.4918 H   0  0  0  0  0  0
    2.7425   -0.0389   -1.4847 H   0  0  0  0  0  0
    4.2965   -1.6656   -0.8903 H   0  0  0  0  0  0
    5.5600   -0.4331   -0.9446 H   0  0  0  0  0  0
    5.6654   -0.8918    1.3748 H   0  0  0  0  0  0
    3.9833   -1.4432    1.4194 H   0  0  0  0  0  0
    4.9938    1.4377    1.2697 H   0  0  0  0  0  0
    3.8635    0.7368    2.4557 H   0  0  0  0  0  0
   -1.2161    2.3028    1.3056 N   0  3  0  0  0  0
   -1.2820    3.3267    1.3433 H   0  0  0  0  0  0
   -1.2321    1.9234    2.2596 H   0  0  0  0  0  0
  1  2  1  0  0  0
  1 17  1  0  0  0
  1 18  1  0  0  0
  1 19  1  0  0  0
  2  3  1  0  0  0
  2 20  1  0  0  0
  2 21  1  0  0  0
  3  4  1  0  0  0
  3 22  1  0  0  0
  3 23  1  0  0  0
  4  5  1  0  0  0
  4 24  1  0  0  0
  4 25  1  0  0  0
  5  6  1  0  0  0
  5 26  1  0  0  0
  5 27  1  0  0  0
  6  7  1  0  0  0
  6 28  1  0  0  0
  6 47  1  0  0  0
  7  8  1  0  0  0
  7 29  1  0  0  0
  7 30  1  0  0  0
  8 31  1  0  0  0
  8 32  1  0  0  0
  8 33  1  0  0  0
  9 10  1  0  0  0
  9 34  1  0  0  0
  9 35  1  0  0  0
  9 47  1  0  0  0
 10 11  1  0  0  0
 10 36  1  0  0  0
 10 37  1  0  0  0
 11 12  1  0  0  0
 12 13  1  0  0  0
 12 16  1  0  0  0
 12 38  1  0  0  0
 13 14  1  0  0  0
 13 39  1  0  0  0
 13 40  1  0  0  0
 14 15  1  0  0  0
 14 41  1  0  0  0
 14 42  1  0  0  0
 15 16  1  0  0  0
 15 43  1  0  0  0
 15 44  1  0  0  0
 16 45  1  0  0  0
 16 46  1  0  0  0
 47 48  1  0  0  0
 47 49  1  0  0  0
M  CHG  1  47   1
M  END
> <energy>
40.6397

> <chiral flag>
0

> <version>
0

> <i_ionizer_Ion_state_n>
1

> <i_ionizer_Tot_Q>
1

> <s_ionizer_Ion_centers>
47

> <s_ionizer_Ion_types>
N5

> <s_ionizer_Ion_ctrs_in>
9

> <r_ionizer_Ionization_penalty>
0.000148807

> <r_ionizer_Ionization_penalty_charging>
0.000148807

> <r_ionizer_Ionization_penalty_neutral>
0

$$$$
ZINC001258438922
                    3D
 Structure written by MMmdl.
 49 49  0  0  1  0            999 V2000
   -3.1221   -0.3652    0.2542 C   0  0  0  0  0  0
   -3.2768   -1.8750    0.3828 C   0  0  0  0  0  0
   -1.9336   -2.5941    0.5232 C   0  0  0  0  0  0
   -1.1980   -2.7599   -0.8139 C   0  0  0  0  0  0
    0.2309   -3.2882   -0.6182 C   0  0  0  0  0  0
    1.2318   -2.1846   -0.1957 C   0  0  1  0  0  0
    2.4868   -2.7906    0.4673 C   0  0  0  0  0  0
    2.2232   -3.2726    1.8890 C   0  0  0  0  0  0
    1.9836   -0.0468   -1.1405 C   0  0  0  0  0  0
    0.7720    0.8962   -1.1786 C   0  0  0  0  0  0
    1.1953    2.2119   -0.8041 O   0  0  0  0  0  0
    0.1387    3.1751   -0.8658 C   0  0  0  0  0  0
    0.7575    4.5728   -0.7719 C   0  0  0  0  0  0
    0.6300    4.9488    0.6973 C   0  0  0  0  0  0
   -0.7354    4.3985    1.0635 C   0  0  0  0  0  0
   -0.7954    3.0537    0.3477 C   0  0  0  0  0  0
   -2.5534   -0.0903   -0.6379 H   0  0  0  0  0  0
   -4.1068    0.1112    0.1840 H   0  0  0  0  0  0
   -2.6092    0.0453    1.1296 H   0  0  0  0  0  0
   -3.8820   -2.0810    1.2748 H   0  0  0  0  0  0
   -3.8331   -2.2666   -0.4765 H   0  0  0  0  0  0
   -1.3130   -2.0601    1.2495 H   0  0  0  0  0  0
   -2.1153   -3.5902    0.9424 H   0  0  0  0  0  0
   -1.1835   -1.8202   -1.3768 H   0  0  0  0  0  0
   -1.7564   -3.4839   -1.4228 H   0  0  0  0  0  0
    0.2091   -4.1042    0.1115 H   0  0  0  0  0  0
    0.5679   -3.7421   -1.5613 H   0  0  0  0  0  0
    0.7457   -1.5107    0.5197 H   0  0  0  0  0  0
    2.8753   -3.6209   -0.1356 H   0  0  0  0  0  0
    3.2880   -2.0428    0.5175 H   0  0  0  0  0  0
    1.5384   -4.1243    1.9121 H   0  0  0  0  0  0
    3.1602   -3.5874    2.3603 H   0  0  0  0  0  0
    1.7925   -2.4715    2.4980 H   0  0  0  0  0  0
    2.5348    0.0622   -0.1969 H   0  0  0  0  0  0
    2.6845    0.2807   -1.9195 H   0  0  0  0  0  0
    0.3591    0.9210   -2.1931 H   0  0  0  0  0  0
   -0.0072    0.5529   -0.4926 H   0  0  0  0  0  0
   -0.3990    3.0692   -1.8148 H   0  0  0  0  0  0
    1.7972    4.6120   -1.1095 H   0  0  0  0  0  0
    0.1698    5.2779   -1.3738 H   0  0  0  0  0  0
    1.4138    4.4596    1.2904 H   0  0  0  0  0  0
    0.7009    6.0271    0.8581 H   0  0  0  0  0  0
   -0.8709    4.2994    2.1436 H   0  0  0  0  0  0
   -1.5220    5.0636    0.6842 H   0  0  0  0  0  0
   -1.8224    2.8334    0.0378 H   0  0  0  0  0  0
   -0.4720    2.2549    1.0259 H   0  0  0  0  0  0
    1.6137   -1.4519   -1.4362 N   0  3  0  0  0  0
    2.4153   -1.9244   -1.8703 H   0  0  0  0  0  0
    0.8191   -1.4587   -2.0865 H   0  0  0  0  0  0
  1  2  1  0  0  0
  1 17  1  0  0  0
  1 18  1  0  0  0
  1 19  1  0  0  0
  2  3  1  0  0  0
  2 20  1  0  0  0
  2 21  1  0  0  0
  3  4  1  0  0  0
  3 22  1  0  0  0
  3 23  1  0  0  0
  4  5  1  0  0  0
  4 24  1  0  0  0
  4 25  1  0  0  0
  5  6  1  0  0  0
  5 26  1  0  0  0
  5 27  1  0  0  0
  6  7  1  0  0  0
  6 28  1  0  0  0
  6 47  1  0  0  0
  7  8  1  0  0  0
  7 29  1  0  0  0
  7 30  1  0  0  0
  8 31  1  0  0  0
  8 32  1  0  0  0
  8 33  1  0  0  0
  9 10  1  0  0  0
  9 34  1  0  0  0
  9 35  1  0  0  0
  9 47  1  0  0  0
 10 11  1  0  0  0
 10 36  1  0  0  0
 10 37  1  0  0  0
 11 12  1  0  0  0
 12 13  1  0  0  0
 12 16  1  0  0  0
 12 38  1  0  0  0
 13 14  1  0  0  0
 13 39  1  0  0  0
 13 40  1  0  0  0
 14 15  1  0  0  0
 14 41  1  0  0  0
 14 42  1  0  0  0
 15 16  1  0  0  0
 15 43  1  0  0  0
 15 44  1  0  0  0
 16 45  1  0  0  0
 16 46  1  0  0  0
 47 48  1  0  0  0
 47 49  1  0  0  0
M  CHG  1  47   1
M  END
> <energy>
34.8753

> <chiral flag>
0

> <version>
0

> <i_ionizer_Ion_state_n>
1

> <i_ionizer_Tot_Q>
1

> <s_ionizer_Ion_centers>
47

> <s_ionizer_Ion_types>
N5

> <s_ionizer_Ion_ctrs_in>
9

> <r_ionizer_Ionization_penalty>
0.000148807

> <r_ionizer_Ionization_penalty_charging>
0.000148807

> <r_ionizer_Ionization_penalty_neutral>
0

$$$$
ZINC001258438939
                    3D
 Structure written by MMmdl.
 41 41  0  0  1  0            999 V2000
   -2.0560    2.2171    3.5655 C   0  0  0  0  0  0
   -0.6257    1.7392    3.3860 C   0  0  0  0  0  0
   -0.2396    1.4780    1.9316 C   0  0  0  0  0  0
   -1.1322    0.4395    1.2375 C   0  0  0  0  0  0
   -0.4957   -0.0357   -0.0713 C   0  0  0  0  0  0
   -1.1923   -1.2480   -0.7396 C   0  0  1  0  0  0
   -2.5695   -0.8639   -1.3376 C   0  0  0  0  0  0
   -3.7377   -1.1324   -0.3964 C   0  0  0  0  0  0
    0.9188   -2.3355   -1.4879 C   0  0  0  0  0  0
    2.0570   -1.4100   -1.8346 C   0  0  0  0  0  0
    2.2074   -0.8153   -3.0018 N   0  0  0  0  0  0
    3.2665    0.0690   -2.9412 C   0  0  0  0  0  0
    3.9590    0.0899   -1.7513 C   0  0  0  0  0  0
    5.1210    0.9307   -1.3679 C   0  0  0  0  0  0
    3.2826   -1.0531   -0.6719 S   0  0  0  0  0  0
   -2.7716    1.4356    3.2926 H   0  0  0  0  0  0
   -2.2307    2.4742    4.6147 H   0  0  0  0  0  0
   -2.2549    3.1037    2.9565 H   0  0  0  0  0  0
   -0.4783    0.8195    3.9653 H   0  0  0  0  0  0
    0.0560    2.4906    3.7974 H   0  0  0  0  0  0
   -0.2629    2.4171    1.3669 H   0  0  0  0  0  0
    0.8038    1.1363    1.9232 H   0  0  0  0  0  0
   -1.2784   -0.4164    1.9032 H   0  0  0  0  0  0
   -2.1113    0.8865    1.0379 H   0  0  0  0  0  0
    0.5341   -0.3060    0.1689 H   0  0  0  0  0  0
   -0.4271    0.8024   -0.7757 H   0  0  0  0  0  0
   -1.3235   -2.0518   -0.0032 H   0  0  0  0  0  0
   -2.7718   -1.4455   -2.2485 H   0  0  0  0  0  0
   -2.5813    0.1874   -1.6514 H   0  0  0  0  0  0
   -3.6858   -0.5306    0.5141 H   0  0  0  0  0  0
   -3.7639   -2.1891   -0.1071 H   0  0  0  0  0  0
   -4.6839   -0.8972   -0.8986 H   0  0  0  0  0  0
    0.9359   -2.6519   -0.4389 H   0  0  0  0  0  0
    1.0705   -3.2491   -2.0757 H   0  0  0  0  0  0
    3.4788    0.6920   -3.8030 H   0  0  0  0  0  0
    5.1161    1.8703   -1.9323 H   0  0  0  0  0  0
    5.1070    1.1859   -0.3037 H   0  0  0  0  0  0
    6.0522    0.4038   -1.5866 H   0  0  0  0  0  0
   -0.4001   -1.7647   -1.8984 N   0  3  0  0  0  0
   -0.9441   -2.4988   -2.3667 H   0  0  0  0  0  0
   -0.2337   -0.9915   -2.5531 H   0  0  0  0  0  0
  1  2  1  0  0  0
  1 16  1  0  0  0
  1 17  1  0  0  0
  1 18  1  0  0  0
  2  3  1  0  0  0
  2 19  1  0  0  0
  2 20  1  0  0  0
  3  4  1  0  0  0
  3 21  1  0  0  0
  3 22  1  0  0  0
  4  5  1  0  0  0
  4 23  1  0  0  0
  4 24  1  0  0  0
  5  6  1  0  0  0
  5 25  1  0  0  0
  5 26  1  0  0  0
  6  7  1  0  0  0
  6 27  1  0  0  0
  6 39  1  0  0  0
  7  8  1  0  0  0
  7 28  1  0  0  0
  7 29  1  0  0  0
  8 30  1  0  0  0
  8 31  1  0  0  0
  8 32  1  0  0  0
  9 10  1  0  0  0
  9 33  1  0  0  0
  9 34  1  0  0  0
  9 39  1  0  0  0
 10 11  2  0  0  0
 10 15  1  0  0  0
 11 12  1  0  0  0
 12 13  2  0  0  0
 12 35  1  0  0  0
 13 14  1  0  0  0
 13 15  1  0  0  0
 14 36  1  0  0  0
 14 37  1  0  0  0
 14 38  1  0  0  0
 39 40  1  0  0  0
 39 41  1  0  0  0
M  CHG  1  39   1
M  END
> <energy>
36.3648

> <chiral flag>
0

> <version>
0

> <i_ionizer_Ion_state_n>
1

> <i_ionizer_Tot_Q>
1

> <s_ionizer_Ion_centers>
39

> <s_ionizer_Ion_types>
N5

> <s_ionizer_Ion_ctrs_in>
9

> <r_ionizer_Ionization_penalty>
0.000148807

> <r_ionizer_Ionization_penalty_charging>
0.000148807

> <r_ionizer_Ionization_penalty_neutral>
0

$$$$
ZINC001258438940
                    3D
 Structure written by MMmdl.
 41 41  0  0  1  0            999 V2000
    0.2347    3.9867    0.4674 C   0  0  0  0  0  0
   -0.7292    3.9782   -0.7115 C   0  0  0  0  0  0
   -1.8107    2.8956   -0.6216 C   0  0  0  0  0  0
   -1.2387    1.4814   -0.7728 C   0  0  0  0  0  0
   -2.3451    0.4131   -0.8022 C   0  0  0  0  0  0
   -1.8641   -1.0568   -0.6496 C   0  0  2  0  0  0
   -1.7721   -1.4941    0.8324 C   0  0  0  0  0  0
   -0.8133   -0.7243    1.7262 C   0  0  0  0  0  0
   -0.0486   -2.5941   -1.3934 C   0  0  0  0  0  0
    1.1754   -2.5931   -0.5094 C   0  0  0  0  0  0
    1.3235   -3.3238    0.5793 N   0  0  0  0  0  0
    2.5299   -3.0224    1.1825 C   0  0  0  0  0  0
    3.3037   -2.0808    0.5409 C   0  0  0  0  0  0
    4.6178   -1.5097    0.9272 C   0  0  0  0  0  0
    2.5203   -1.5787   -0.8964 S   0  0  0  0  0  0
    0.9495    4.8114    0.3562 H   0  0  0  0  0  0
   -0.3007    4.1245    1.4129 H   0  0  0  0  0  0
    0.8082    3.0565    0.5329 H   0  0  0  0  0  0
   -0.1592    3.8544   -1.6393 H   0  0  0  0  0  0
   -1.2185    4.9588   -0.7674 H   0  0  0  0  0  0
   -2.5425    3.0749   -1.4196 H   0  0  0  0  0  0
   -2.3527    2.9845    0.3295 H   0  0  0  0  0  0
   -0.6626    1.4320   -1.7055 H   0  0  0  0  0  0
   -0.5320    1.2853    0.0363 H   0  0  0  0  0  0
   -2.8674    0.5065   -1.7642 H   0  0  0  0  0  0
   -3.0950    0.6280   -0.0307 H   0  0  0  0  0  0
   -2.6644   -1.6784   -1.0774 H   0  0  0  0  0  0
   -1.5225   -2.5601    0.8884 H   0  0  0  0  0  0
   -2.7749   -1.4156    1.2744 H   0  0  0  0  0  0
   -0.7336   -1.2266    2.6959 H   0  0  0  0  0  0
   -1.1806    0.2877    1.9156 H   0  0  0  0  0  0
    0.1887   -0.6575    1.2991 H   0  0  0  0  0  0
   -0.7612   -3.3632   -1.0761 H   0  0  0  0  0  0
    0.2793   -2.8959   -2.3966 H   0  0  0  0  0  0
    2.7924   -3.5246    2.1052 H   0  0  0  0  0  0
    5.4041   -1.8751    0.2615 H   0  0  0  0  0  0
    4.6022   -0.4157    0.8805 H   0  0  0  0  0  0
    4.8801   -1.7938    1.9500 H   0  0  0  0  0  0
   -0.6646   -1.2382   -1.5233 N   0  3  0  0  0  0
   -0.9474   -1.0993   -2.5005 H   0  0  0  0  0  0
    0.0370   -0.5339   -1.2666 H   0  0  0  0  0  0
  1  2  1  0  0  0
  1 16  1  0  0  0
  1 17  1  0  0  0
  1 18  1  0  0  0
  2  3  1  0  0  0
  2 19  1  0  0  0
  2 20  1  0  0  0
  3  4  1  0  0  0
  3 21  1  0  0  0
  3 22  1  0  0  0
  4  5  1  0  0  0
  4 23  1  0  0  0
  4 24  1  0  0  0
  5  6  1  0  0  0
  5 25  1  0  0  0
  5 26  1  0  0  0
  6  7  1  0  0  0
  6 27  1  0  0  0
  6 39  1  0  0  0
  7  8  1  0  0  0
  7 28  1  0  0  0
  7 29  1  0  0  0
  8 30  1  0  0  0
  8 31  1  0  0  0
  8 32  1  0  0  0
  9 10  1  0  0  0
  9 33  1  0  0  0
  9 34  1  0  0  0
  9 39  1  0  0  0
 10 11  2  0  0  0
 10 15  1  0  0  0
 11 12  1  0  0  0
 12 13  2  0  0  0
 12 35  1  0  0  0
 13 14  1  0  0  0
 13 15  1  0  0  0
 14 36  1  0  0  0
 14 37  1  0  0  0
 14 38  1  0  0  0
 39 40  1  0  0  0
 39 41  1  0  0  0
M  CHG  1  39   1
M  END
> <energy>
33.1229

> <chiral flag>
0

> <version>
0

> <i_ionizer_Ion_state_n>
1

> <i_ionizer_Tot_Q>
1

> <s_ionizer_Ion_centers>
39

> <s_ionizer_Ion_types>
N5

> <s_ionizer_Ion_ctrs_in>
9

> <r_ionizer_Ionization_penalty>
0.000148807

> <r_ionizer_Ionization_penalty_charging>
0.000148807

> <r_ionizer_Ionization_penalty_neutral>
0

$$$$
ZINC001258439126
                    3D
 Structure written by MMmdl.
 47 48  0  0  1  0            999 V2000
   -4.3040   -3.3538   -0.0851 C   0  0  0  0  0  0
   -4.1538   -1.9771   -0.7138 C   0  0  0  0  0  0
   -2.7641   -1.3967   -0.4516 C   0  0  0  0  0  0
   -2.6093    0.0095   -1.0408 C   0  0  0  0  0  0
   -1.1989    0.5709   -0.8076 C   0  0  0  0  0  0
   -0.9866    1.1701    0.6118 C   0  0  2  0  0  0
   -1.5129    2.6278    0.7114 C   0  0  0  0  0  0
   -0.7081    3.6905   -0.0281 C   0  0  0  0  0  0
    0.7645   -0.2881    1.4863 C   0  0  0  0  0  0
    2.1200   -0.0666    0.7650 C   0  0  2  0  0  0
    1.4836    1.2557    0.2408 C   0  0  0  0  0  0
    2.4202   -1.1582   -0.2652 C   0  0  0  0  0  0
    3.7152   -0.8416   -1.0067 C   0  0  0  0  0  0
    4.8645   -0.6274   -0.0238 C   0  0  0  0  0  0
    4.4964    0.4255    1.0130 C   0  0  0  0  0  0
    3.2703    0.0723    1.6494 O   0  0  0  0  0  0
   -4.1750   -3.3023    1.0001 H   0  0  0  0  0  0
   -3.5631   -4.0519   -0.4855 H   0  0  0  0  0  0
   -5.2987   -3.7584   -0.2911 H   0  0  0  0  0  0
   -4.3262   -2.0526   -1.7942 H   0  0  0  0  0  0
   -4.9221   -1.3090   -0.3081 H   0  0  0  0  0  0
   -2.5758   -1.3741    0.6272 H   0  0  0  0  0  0
   -2.0105   -2.0599   -0.8920 H   0  0  0  0  0  0
   -2.7828   -0.0452   -2.1224 H   0  0  0  0  0  0
   -3.3686    0.6821   -0.6311 H   0  0  0  0  0  0
   -0.4907   -0.2401   -1.0059 H   0  0  0  0  0  0
   -1.0009    1.3353   -1.5663 H   0  0  0  0  0  0
   -1.6271    0.6052    1.3047 H   0  0  0  0  0  0
   -1.5606    2.9155    1.7699 H   0  0  0  0  0  0
   -2.5472    2.6634    0.3498 H   0  0  0  0  0  0
   -1.2241    4.6545    0.0312 H   0  0  0  0  0  0
    0.2808    3.8247    0.4175 H   0  0  0  0  0  0
   -0.5849    3.4508   -1.0858 H   0  0  0  0  0  0
    0.1349   -1.0773    1.0565 H   0  0  0  0  0  0
    0.8534   -0.4949    2.5587 H   0  0  0  0  0  0
    2.0845    2.1507    0.4351 H   0  0  0  0  0  0
    1.2472    1.2627   -0.8263 H   0  0  0  0  0  0
    2.5217   -2.1247    0.2439 H   0  0  0  0  0  0
    1.6052   -1.2636   -0.9888 H   0  0  0  0  0  0
    3.5813    0.0626   -1.6134 H   0  0  0  0  0  0
    3.9620   -1.6622   -1.6904 H   0  0  0  0  0  0
    5.7716   -0.3294   -0.5594 H   0  0  0  0  0  0
    5.0751   -1.5761    0.4855 H   0  0  0  0  0  0
    5.2720    0.4864    1.7827 H   0  0  0  0  0  0
    4.4001    1.4168    0.5554 H   0  0  0  0  0  0
    0.4424    1.0309    1.1732 N   0  3  1  0  0  0
    0.5332    1.6504    1.9869 H   0  0  0  0  0  0
  1  2  1  0  0  0
  1 17  1  0  0  0
  1 18  1  0  0  0
  1 19  1  0  0  0
  2  3  1  0  0  0
  2 20  1  0  0  0
  2 21  1  0  0  0
  3  4  1  0  0  0
  3 22  1  0  0  0
  3 23  1  0  0  0
  4  5  1  0  0  0
  4 24  1  0  0  0
  4 25  1  0  0  0
  5  6  1  0  0  0
  5 26  1  0  0  0
  5 27  1  0  0  0
  6  7  1  0  0  0
  6 28  1  0  0  0
  6 46  1  0  0  0
  7  8  1  0  0  0
  7 29  1  0  0  0
  7 30  1  0  0  0
  8 31  1  0  0  0
  8 32  1  0  0  0
  8 33  1  0  0  0
  9 10  1  0  0  0
  9 34  1  0  0  0
  9 35  1  0  0  0
  9 46  1  0  0  0
 10 11  1  0  0  0
 10 12  1  0  0  0
 10 16  1  0  0  0
 11 36  1  0  0  0
 11 37  1  0  0  0
 11 46  1  0  0  0
 12 13  1  0  0  0
 12 38  1  0  0  0
 12 39  1  0  0  0
 13 14  1  0  0  0
 13 40  1  0  0  0
 13 41  1  0  0  0
 14 15  1  0  0  0
 14 42  1  0  0  0
 14 43  1  0  0  0
 15 16  1  0  0  0
 15 44  1  0  0  0
 15 45  1  0  0  0
 46 47  1  0  0  0
M  CHG  1  46   1
M  END
> <energy>
46.2438

> <chiral flag>
0

> <version>
0

> <i_ionizer_Ion_state_n>
1

> <i_ionizer_Tot_Q>
1

> <s_ionizer_Ion_centers>
46

> <s_ionizer_Ion_types>
N5

> <s_ionizer_Ion_ctrs_in>
9

> <r_ionizer_Ionization_penalty>
0.00148639

> <r_ionizer_Ionization_penalty_charging>
0.00148639

> <r_ionizer_Ionization_penalty_neutral>
0

$$$$
ZINC001258439128
                    3D
 Structure written by MMmdl.
 47 48  0  0  1  0            999 V2000
   -3.1604    3.5005   -0.3258 C   0  0  0  0  0  0
   -3.1997    2.0460   -0.7677 C   0  0  0  0  0  0
   -2.7982    1.1044    0.3679 C   0  0  0  0  0  0
   -2.8389   -0.3604   -0.0829 C   0  0  0  0  0  0
   -2.3872   -1.3341    1.0166 C   0  0  0  0  0  0
   -0.8996   -1.7814    1.0045 C   0  0  1  0  0  0
   -0.6420   -3.0237    0.1095 C   0  0  0  0  0  0
   -1.2597   -3.0304   -1.2827 C   0  0  0  0  0  0
    0.6192   -0.3387   -0.3879 C   0  0  0  0  0  0
    1.9329    0.0313    0.3762 C   0  0  1  0  0  0
    1.3198   -0.8455    1.5101 C   0  0  0  0  0  0
    3.2201   -0.5491   -0.2276 C   0  0  0  0  0  0
    3.8552    0.4786   -1.1563 C   0  0  0  0  0  0
    4.2135    1.7621   -0.4023 C   0  0  0  0  0  0
    3.4002    1.9335    0.8754 C   0  0  0  0  0  0
    2.0779    1.4560    0.6696 O   0  0  0  0  0  0
   -3.4566    4.1551   -1.1513 H   0  0  0  0  0  0
   -2.1521    3.7871   -0.0101 H   0  0  0  0  0  0
   -3.8446    3.6761    0.5105 H   0  0  0  0  0  0
   -4.2101    1.8020   -1.1154 H   0  0  0  0  0  0
   -2.5219    1.9124   -1.6189 H   0  0  0  0  0  0
   -3.4818    1.2423    1.2144 H   0  0  0  0  0  0
   -1.7970    1.3723    0.7201 H   0  0  0  0  0  0
   -3.8767   -0.6016   -0.3478 H   0  0  0  0  0  0
   -2.2512   -0.4885   -0.9958 H   0  0  0  0  0  0
   -3.0144   -2.2338    0.9619 H   0  0  0  0  0  0
   -2.6113   -0.8896    1.9959 H   0  0  0  0  0  0
   -0.7493   -2.1680    2.0251 H   0  0  0  0  0  0
   -1.0416   -3.8998    0.6395 H   0  0  0  0  0  0
    0.4349   -3.2123    0.0276 H   0  0  0  0  0  0
   -0.9536   -3.9364   -1.8163 H   0  0  0  0  0  0
   -2.3526   -3.0415   -1.2325 H   0  0  0  0  0  0
   -0.9531   -2.1761   -1.8887 H   0  0  0  0  0  0
    0.7555   -1.1755   -1.0763 H   0  0  0  0  0  0
    0.1625    0.4885   -0.9407 H   0  0  0  0  0  0
    1.6703   -1.8850    1.5173 H   0  0  0  0  0  0
    1.4327   -0.4399    2.5206 H   0  0  0  0  0  0
    3.0189   -1.4765   -0.7757 H   0  0  0  0  0  0
    3.9290   -0.8057    0.5694 H   0  0  0  0  0  0
    4.7520    0.0657   -1.6319 H   0  0  0  0  0  0
    3.1503    0.7212   -1.9616 H   0  0  0  0  0  0
    5.2809    1.7811   -0.1542 H   0  0  0  0  0  0
    4.0362    2.6141   -1.0702 H   0  0  0  0  0  0
    3.8521    1.3882    1.7122 H   0  0  0  0  0  0
    3.3524    2.9894    1.1603 H   0  0  0  0  0  0
    0.0943   -0.5956    0.9009 N   0  3  2  0  0  0
   -0.3627    0.2380    1.2889 H   0  0  0  0  0  0
  1  2  1  0  0  0
  1 17  1  0  0  0
  1 18  1  0  0  0
  1 19  1  0  0  0
  2  3  1  0  0  0
  2 20  1  0  0  0
  2 21  1  0  0  0
  3  4  1  0  0  0
  3 22  1  0  0  0
  3 23  1  0  0  0
  4  5  1  0  0  0
  4 24  1  0  0  0
  4 25  1  0  0  0
  5  6  1  0  0  0
  5 26  1  0  0  0
  5 27  1  0  0  0
  6  7  1  0  0  0
  6 28  1  0  0  0
  6 46  1  0  0  0
  7  8  1  0  0  0
  7 29  1  0  0  0
  7 30  1  0  0  0
  8 31  1  0  0  0
  8 32  1  0  0  0
  8 33  1  0  0  0
  9 10  1  0  0  0
  9 34  1  0  0  0
  9 35  1  0  0  0
  9 46  1  0  0  0
 10 11  1  0  0  0
 10 12  1  0  0  0
 10 16  1  0  0  0
 11 36  1  0  0  0
 11 37  1  0  0  0
 11 46  1  0  0  0
 12 13  1  0  0  0
 12 38  1  0  0  0
 12 39  1  0  0  0
 13 14  1  0  0  0
 13 40  1  0  0  0
 13 41  1  0  0  0
 14 15  1  0  0  0
 14 42  1  0  0  0
 14 43  1  0  0  0
 15 16  1  0  0  0
 15 44  1  0  0  0
 15 45  1  0  0  0
 46 47  1  0  0  0
M  CHG  1  46   1
M  END
> <energy>
57.2826

> <chiral flag>
0

> <version>
0

> <i_ionizer_Ion_state_n>
1

> <i_ionizer_Tot_Q>
1

> <s_ionizer_Ion_centers>
46

> <s_ionizer_Ion_types>
N5

> <s_ionizer_Ion_ctrs_in>
9

> <r_ionizer_Ionization_penalty>
0.00148639

> <r_ionizer_Ionization_penalty_charging>
0.00148639

> <r_ionizer_Ionization_penalty_neutral>
0

$$$$
ZINC001258439507
                    3D
 Structure written by MMmdl.
 47 47  0  0  1  0            999 V2000
   -3.6615   -3.0060    0.6371 C   0  0  0  0  0  0
   -3.5120   -1.5623    1.0974 C   0  0  0  0  0  0
   -3.0721   -0.6422   -0.0464 C   0  0  0  0  0  0
   -2.8955    0.8193    0.3972 C   0  0  0  0  0  0
   -1.5995    1.0667    1.1820 C   0  0  0  0  0  0
   -0.3754    1.5623    0.3836 C   0  0  2  0  0  0
   -0.2577    3.0982    0.2838 C   0  0  0  0  0  0
   -1.4413    3.8355   -0.3203 C   0  0  0  0  0  0
   -0.3255    0.9385   -0.9494 N   0  0  0  0  0  0
    0.9485    0.4701   -1.3165 C   0  0  0  0  0  0
    1.7440    1.1935   -2.2086 C   0  0  0  0  0  0
    3.0383    0.7669   -2.5091 C   0  0  0  0  0  0
    3.5513   -0.3856   -1.9118 C   0  0  0  0  0  0
    2.7727   -1.1260   -1.0133 C   0  0  0  0  0  0
    3.3162   -2.3819   -0.3744 C   0  0  0  0  0  0
    3.9921   -2.1431    0.9827 C   0  0  0  0  0  0
    1.4747   -0.6820   -0.7195 C   0  0  0  0  0  0
   -2.7031   -3.4107    0.2957 H   0  0  0  0  0  0
   -4.3822   -3.0864   -0.1828 H   0  0  0  0  0  0
   -4.0164   -3.6313    1.4642 H   0  0  0  0  0  0
   -2.7909   -1.5317    1.9219 H   0  0  0  0  0  0
   -4.4730   -1.2172    1.4967 H   0  0  0  0  0  0
   -3.8371   -0.6744   -0.8309 H   0  0  0  0  0  0
   -2.1457   -1.0196   -0.4924 H   0  0  0  0  0  0
   -2.9443    1.4667   -0.4842 H   0  0  0  0  0  0
   -3.7502    1.0969    1.0268 H   0  0  0  0  0  0
   -1.8034    1.7858    1.9856 H   0  0  0  0  0  0
   -1.3085    0.1392    1.6905 H   0  0  0  0  0  0
    0.4987    1.2521    0.9743 H   0  0  0  0  0  0
    0.6377    3.3570   -0.2956 H   0  0  0  0  0  0
   -0.0949    3.4983    1.2919 H   0  0  0  0  0  0
   -1.6486    3.5050   -1.3403 H   0  0  0  0  0  0
   -1.2253    4.9087   -0.3625 H   0  0  0  0  0  0
   -2.3454    3.7103    0.2821 H   0  0  0  0  0  0
   -0.7039    1.5492   -1.6683 H   0  0  0  0  0  0
    1.3627    2.0989   -2.6722 H   0  0  0  0  0  0
    3.6458    1.3371   -3.2059 H   0  0  0  0  0  0
    4.5592   -0.7045   -2.1593 H   0  0  0  0  0  0
    4.0484   -2.8319   -1.0574 H   0  0  0  0  0  0
    2.5149   -3.1260   -0.2779 H   0  0  0  0  0  0
    4.5786   -3.0305    1.2422 H   0  0  0  0  0  0
    4.6893   -1.2992    0.9252 H   0  0  0  0  0  0
    3.5401   -1.7424    2.9334 H   0  0  0  0  0  0
    0.8520   -1.2499   -0.0310 H   0  0  0  0  0  0
    3.0334   -1.9142    2.0630 N   0  3  0  0  0  0
    2.4516   -1.0987    1.8379 H   0  0  0  0  0  0
    2.4354   -2.7418    2.1716 H   0  0  0  0  0  0
  1  2  1  0  0  0
  1 18  1  0  0  0
  1 19  1  0  0  0
  1 20  1  0  0  0
  2  3  1  0  0  0
  2 21  1  0  0  0
  2 22  1  0  0  0
  3  4  1  0  0  0
  3 23  1  0  0  0
  3 24  1  0  0  0
  4  5  1  0  0  0
  4 25  1  0  0  0
  4 26  1  0  0  0
  5  6  1  0  0  0
  5 27  1  0  0  0
  5 28  1  0  0  0
  6  7  1  0  0  0
  6  9  1  0  0  0
  6 29  1  0  0  0
  7  8  1  0  0  0
  7 30  1  0  0  0
  7 31  1  0  0  0
  8 32  1  0  0  0
  8 33  1  0  0  0
  8 34  1  0  0  0
  9 10  1  0  0  0
  9 35  1  0  0  0
 10 11  2  0  0  0
 10 17  1  0  0  0
 11 12  1  0  0  0
 11 36  1  0  0  0
 12 13  2  0  0  0
 12 37  1  0  0  0
 13 14  1  0  0  0
 13 38  1  0  0  0
 14 15  1  0  0  0
 14 17  2  0  0  0
 15 16  1  0  0  0
 15 39  1  0  0  0
 15 40  1  0  0  0
 16 41  1  0  0  0
 16 42  1  0  0  0
 16 45  1  0  0  0
 17 44  1  0  0  0
 43 45  1  0  0  0
 45 46  1  0  0  0
 45 47  1  0  0  0
M  CHG  1  45   1
M  END
> <energy>
34.9389

> <chiral flag>
0

> <version>
0

> <i_ionizer_Ion_state_n>
2

> <i_ionizer_Tot_Q>
1

> <s_ionizer_Ion_centers>
45

> <s_ionizer_Ion_types>
N5

> <s_ionizer_Ion_ctrs_in>
17

> <r_ionizer_Ionization_penalty>
0.00121587

> <r_ionizer_Ionization_penalty_charging>
0.000470441

> <r_ionizer_Ionization_penalty_neutral>
0.000745426

$$$$
ZINC001258439508
                    3D
 Structure written by MMmdl.
 47 47  0  0  1  0            999 V2000
   -0.7993   -2.9708    0.1491 C   0  0  0  0  0  0
   -0.6733   -2.3399    1.5269 C   0  0  0  0  0  0
   -2.0372   -2.1045    2.1860 C   0  0  0  0  0  0
   -2.2549   -0.6741    2.6963 C   0  0  0  0  0  0
   -2.8579    0.3109    1.6781 C   0  0  0  0  0  0
   -1.9212    0.7982    0.5515 C   0  0  1  0  0  0
   -2.6961    1.8032   -0.3286 C   0  0  0  0  0  0
   -1.9422    2.3103   -1.5498 C   0  0  0  0  0  0
   -0.7603    1.4410    1.1667 N   0  0  0  0  0  0
    0.5157    1.4536    0.6163 C   0  0  0  0  0  0
    1.5092    2.2062    1.2552 C   0  0  0  0  0  0
    2.8196    2.2430    0.7657 C   0  0  0  0  0  0
    3.1632    1.5069   -0.3656 C   0  0  0  0  0  0
    2.2028    0.7182   -1.0016 C   0  0  0  0  0  0
    2.5302   -0.0527   -2.2569 C   0  0  0  0  0  0
    3.4995   -1.2168   -2.0380 C   0  0  0  0  0  0
    0.8990    0.6758   -0.4802 C   0  0  0  0  0  0
   -1.4633   -2.3889   -0.4906 H   0  0  0  0  0  0
   -1.1951   -3.9885    0.2154 H   0  0  0  0  0  0
    0.1812   -3.0175   -0.3341 H   0  0  0  0  0  0
   -0.0976   -1.4137    1.4506 H   0  0  0  0  0  0
   -0.0771   -3.0119    2.1598 H   0  0  0  0  0  0
   -2.0939   -2.7726    3.0540 H   0  0  0  0  0  0
   -2.8587   -2.4008    1.5237 H   0  0  0  0  0  0
   -2.9773   -0.7353    3.5227 H   0  0  0  0  0  0
   -1.3318   -0.2751    3.1331 H   0  0  0  0  0  0
   -3.2061    1.1892    2.2413 H   0  0  0  0  0  0
   -3.7533   -0.1438    1.2342 H   0  0  0  0  0  0
   -1.6475   -0.0731   -0.0438 H   0  0  0  0  0  0
   -2.9986    2.6759    0.2679 H   0  0  0  0  0  0
   -3.6178    1.3234   -0.6815 H   0  0  0  0  0  0
   -2.6001    2.9408   -2.1575 H   0  0  0  0  0  0
   -1.0753    2.9205   -1.2771 H   0  0  0  0  0  0
   -1.6062    1.4802   -2.1762 H   0  0  0  0  0  0
   -0.9799    2.2580    1.7251 H   0  0  0  0  0  0
    1.2676    2.7853    2.1457 H   0  0  0  0  0  0
    3.5648    2.8576    1.2594 H   0  0  0  0  0  0
    4.1826    1.5532   -0.7438 H   0  0  0  0  0  0
    1.6005   -0.4267   -2.7030 H   0  0  0  0  0  0
    2.9467    0.6511   -2.9858 H   0  0  0  0  0  0
    3.0768   -1.9455   -1.3351 H   0  0  0  0  0  0
    4.4391   -0.8623   -1.5971 H   0  0  0  0  0  0
    2.9403   -2.2201   -3.7313 H   0  0  0  0  0  0
    0.1741    0.0412   -0.9826 H   0  0  0  0  0  0
    3.8086   -1.8902   -3.3021 N   0  3  0  0  0  0
    4.2758   -1.2313   -3.9360 H   0  0  0  0  0  0
    4.4276   -2.6894   -3.1222 H   0  0  0  0  0  0
  1  2  1  0  0  0
  1 18  1  0  0  0
  1 19  1  0  0  0
  1 20  1  0  0  0
  2  3  1  0  0  0
  2 21  1  0  0  0
  2 22  1  0  0  0
  3  4  1  0  0  0
  3 23  1  0  0  0
  3 24  1  0  0  0
  4  5  1  0  0  0
  4 25  1  0  0  0
  4 26  1  0  0  0
  5  6  1  0  0  0
  5 27  1  0  0  0
  5 28  1  0  0  0
  6  7  1  0  0  0
  6  9  1  0  0  0
  6 29  1  0  0  0
  7  8  1  0  0  0
  7 30  1  0  0  0
  7 31  1  0  0  0
  8 32  1  0  0  0
  8 33  1  0  0  0
  8 34  1  0  0  0
  9 10  1  0  0  0
  9 35  1  0  0  0
 10 11  2  0  0  0
 10 17  1  0  0  0
 11 12  1  0  0  0
 11 36  1  0  0  0
 12 13  2  0  0  0
 12 37  1  0  0  0
 13 14  1  0  0  0
 13 38  1  0  0  0
 14 15  1  0  0  0
 14 17  2  0  0  0
 15 16  1  0  0  0
 15 39  1  0  0  0
 15 40  1  0  0  0
 16 41  1  0  0  0
 16 42  1  0  0  0
 16 45  1  0  0  0
 17 44  1  0  0  0
 43 45  1  0  0  0
 45 46  1  0  0  0
 45 47  1  0  0  0
M  CHG  1  45   1
M  END
> <energy>
31.9215

> <chiral flag>
0

> <version>
0

> <i_ionizer_Ion_state_n>
2

> <i_ionizer_Tot_Q>
1

> <s_ionizer_Ion_centers>
45

> <s_ionizer_Ion_types>
N5

> <s_ionizer_Ion_ctrs_in>
17

> <r_ionizer_Ionization_penalty>
0.00121587

> <r_ionizer_Ionization_penalty_charging>
0.000470441

> <r_ionizer_Ionization_penalty_neutral>
0.000745426

$$$$
ZINC001258439835
                    3D
 Structure written by MMmdl.
 46 45  0  0  1  0            999 V2000
   -3.5564    3.5762    0.4992 C   0  0  0  0  0  0
   -3.6277    2.2254   -0.1972 C   0  0  0  0  0  0
   -2.2282    1.7087   -0.5243 C   0  0  0  0  0  0
   -2.2799    0.4117   -1.3374 C   0  0  0  0  0  0
   -0.8735   -0.1301   -1.6254 C   0  0  0  0  0  0
   -0.2574   -0.9252   -0.4431 C   0  0  1  0  0  0
   -0.8300   -2.3647   -0.4183 C   0  0  0  0  0  0
   -1.3305   -2.7865    0.9575 C   0  0  0  0  0  0
    2.1578   -1.0890    0.4031 C   0  0  0  0  0  0
    1.7039   -0.5469    1.7705 C   0  0  0  0  0  0
    2.4964   -2.5853    0.5756 C   0  0  0  0  0  0
    3.4727   -0.3833   -0.0370 C   0  0  0  0  0  0
    3.3205    0.9842   -0.6862 C   0  0  0  0  0  0
    2.7530    2.1123    0.1338 C   0  0  0  0  0  0
    3.6867    1.1752   -1.8480 O   0  0  0  0  0  0
   -4.5580    3.9205    0.7760 H   0  0  0  0  0  0
   -2.9508    3.5178    1.4092 H   0  0  0  0  0  0
   -3.1104    4.3291   -0.1602 H   0  0  0  0  0  0
   -4.2193    2.3270   -1.1156 H   0  0  0  0  0  0
   -4.1464    1.5073    0.4500 H   0  0  0  0  0  0
   -1.6743    1.5562    0.4079 H   0  0  0  0  0  0
   -1.6854    2.4717   -1.0967 H   0  0  0  0  0  0
   -2.8918   -0.3390   -0.8240 H   0  0  0  0  0  0
   -2.7740    0.6229   -2.2949 H   0  0  0  0  0  0
   -0.2300    0.7181   -1.8925 H   0  0  0  0  0  0
   -0.9120   -0.7717   -2.5156 H   0  0  0  0  0  0
   -0.5076   -0.3938    0.4796 H   0  0  0  0  0  0
   -1.6691   -2.4595   -1.1200 H   0  0  0  0  0  0
   -0.0826   -3.0925   -0.7593 H   0  0  0  0  0  0
   -0.5323   -2.7901    1.7033 H   0  0  0  0  0  0
   -2.1240   -2.1176    1.3065 H   0  0  0  0  0  0
   -1.7423   -3.7996    0.9099 H   0  0  0  0  0  0
    2.5270   -0.5729    2.4951 H   0  0  0  0  0  0
    0.8920   -1.1458    2.1946 H   0  0  0  0  0  0
    1.3467    0.4835    1.7115 H   0  0  0  0  0  0
    3.3477   -2.7152    1.2587 H   0  0  0  0  0  0
    2.7740   -3.0496   -0.3781 H   0  0  0  0  0  0
    1.6592   -3.1535    0.9921 H   0  0  0  0  0  0
    3.9953   -1.0128   -0.7726 H   0  0  0  0  0  0
    4.1646   -0.2774    0.8094 H   0  0  0  0  0  0
    1.6621    2.1216    0.0585 H   0  0  0  0  0  0
    3.0644    2.0099    1.1772 H   0  0  0  0  0  0
    3.1463    3.0651   -0.2352 H   0  0  0  0  0  0
    1.2187   -0.8936   -0.7658 N   0  3  0  0  0  0
    1.4070   -1.6378   -1.4477 H   0  0  0  0  0  0
    1.4284    0.0185   -1.1880 H   0  0  0  0  0  0
  1  2  1  0  0  0
  1 16  1  0  0  0
  1 17  1  0  0  0
  1 18  1  0  0  0
  2  3  1  0  0  0
  2 19  1  0  0  0
  2 20  1  0  0  0
  3  4  1  0  0  0
  3 21  1  0  0  0
  3 22  1  0  0  0
  4  5  1  0  0  0
  4 23  1  0  0  0
  4 24  1  0  0  0
  5  6  1  0  0  0
  5 25  1  0  0  0
  5 26  1  0  0  0
  6  7  1  0  0  0
  6 27  1  0  0  0
  6 44  1  0  0  0
  7  8  1  0  0  0
  7 28  1  0  0  0
  7 29  1  0  0  0
  8 30  1  0  0  0
  8 31  1  0  0  0
  8 32  1  0  0  0
  9 10  1  0  0  0
  9 11  1  0  0  0
  9 12  1  0  0  0
  9 44  1  0  0  0
 10 33  1  0  0  0
 10 34  1  0  0  0
 10 35  1  0  0  0
 11 36  1  0  0  0
 11 37  1  0  0  0
 11 38  1  0  0  0
 12 13  1  0  0  0
 12 39  1  0  0  0
 12 40  1  0  0  0
 13 14  1  0  0  0
 13 15  2  0  0  0
 14 41  1  0  0  0
 14 42  1  0  0  0
 14 43  1  0  0  0
 44 45  1  0  0  0
 44 46  1  0  0  0
M  CHG  1  44   1
M  END
> <energy>
23.9382

> <chiral flag>
0

> <version>
0

> <i_ionizer_Ion_state_n>
1

> <i_ionizer_Tot_Q>
1

> <s_ionizer_Ion_centers>
44

> <s_ionizer_Ion_types>
N5

> <s_ionizer_Ion_ctrs_in>
9

> <r_ionizer_Ionization_penalty>
0.000148807

> <r_ionizer_Ionization_penalty_charging>
0.000148807

> <r_ionizer_Ionization_penalty_neutral>
0

$$$$
ZINC001258439838
                    3D
 Structure written by MMmdl.
 46 45  0  0  1  0            999 V2000
   -4.2433    2.1680   -1.2215 C   0  0  0  0  0  0
   -3.6861    2.0363    0.1887 C   0  0  0  0  0  0
   -3.5317    0.5783    0.6314 C   0  0  0  0  0  0
   -2.3960   -0.1490   -0.1049 C   0  0  0  0  0  0
   -1.2979   -0.6034    0.8671 C   0  0  0  0  0  0
   -0.0147   -1.1232    0.1583 C   0  0  2  0  0  0
    0.8174   -2.0014    1.1159 C   0  0  0  0  0  0
    0.0930   -3.2547    1.6029 C   0  0  0  0  0  0
    1.9672   -0.0426   -1.0942 C   0  0  0  0  0  0
    2.0271    1.2050   -2.0171 C   0  0  0  0  0  0
    2.0244   -1.2674   -2.0331 C   0  0  0  0  0  0
    3.2125   -0.0303   -0.1758 C   0  0  0  0  0  0
    3.3769    1.2392    0.6416 C   0  0  0  0  0  0
    2.7606    1.2749    2.0161 C   0  0  0  0  0  0
    4.0054    2.2021    0.2005 O   0  0  0  0  0  0
   -4.3348    3.2230   -1.4973 H   0  0  0  0  0  0
   -5.2356    1.7134   -1.2933 H   0  0  0  0  0  0
   -3.5972    1.6849   -1.9590 H   0  0  0  0  0  0
   -4.3674    2.5441    0.8815 H   0  0  0  0  0  0
   -2.7227    2.5532    0.2602 H   0  0  0  0  0  0
   -3.3686    0.5580    1.7168 H   0  0  0  0  0  0
   -4.4768    0.0494    0.4570 H   0  0  0  0  0  0
   -1.9832    0.4784   -0.8996 H   0  0  0  0  0  0
   -2.8097   -1.0386   -0.5981 H   0  0  0  0  0  0
   -1.0300    0.2159    1.5488 H   0  0  0  0  0  0
   -1.7423   -1.3772    1.4988 H   0  0  0  0  0  0
   -0.3297   -1.7328   -0.6957 H   0  0  0  0  0  0
    1.7183   -2.3597    0.6117 H   0  0  0  0  0  0
    1.1504   -1.4232    1.9833 H   0  0  0  0  0  0
    0.7928   -3.9084    2.1382 H   0  0  0  0  0  0
   -0.7162   -3.0196    2.2990 H   0  0  0  0  0  0
   -0.3176   -3.8210    0.7597 H   0  0  0  0  0  0
    1.2438    1.1730   -2.7834 H   0  0  0  0  0  0
    1.8926    2.1356   -1.4554 H   0  0  0  0  0  0
    2.9927    1.2673   -2.5314 H   0  0  0  0  0  0
    2.1161   -2.2125   -1.4913 H   0  0  0  0  0  0
    2.8931   -1.2021   -2.7022 H   0  0  0  0  0  0
    1.1328   -1.3260   -2.6690 H   0  0  0  0  0  0
    4.1222   -0.1315   -0.7813 H   0  0  0  0  0  0
    3.2376   -0.8789    0.5114 H   0  0  0  0  0  0
    1.6808    1.1347    1.9596 H   0  0  0  0  0  0
    2.9583    2.2447    2.4787 H   0  0  0  0  0  0
    3.2127    0.4971    2.6340 H   0  0  0  0  0  0
    0.6810    0.1503   -0.3025 N   0  3  0  0  0  0
    0.0231    0.6716   -0.8938 H   0  0  0  0  0  0
    0.9055    0.7054    0.5316 H   0  0  0  0  0  0
  1  2  1  0  0  0
  1 16  1  0  0  0
  1 17  1  0  0  0
  1 18  1  0  0  0
  2  3  1  0  0  0
  2 19  1  0  0  0
  2 20  1  0  0  0
  3  4  1  0  0  0
  3 21  1  0  0  0
  3 22  1  0  0  0
  4  5  1  0  0  0
  4 23  1  0  0  0
  4 24  1  0  0  0
  5  6  1  0  0  0
  5 25  1  0  0  0
  5 26  1  0  0  0
  6  7  1  0  0  0
  6 27  1  0  0  0
  6 44  1  0  0  0
  7  8  1  0  0  0
  7 28  1  0  0  0
  7 29  1  0  0  0
  8 30  1  0  0  0
  8 31  1  0  0  0
  8 32  1  0  0  0
  9 10  1  0  0  0
  9 11  1  0  0  0
  9 12  1  0  0  0
  9 44  1  0  0  0
 10 33  1  0  0  0
 10 34  1  0  0  0
 10 35  1  0  0  0
 11 36  1  0  0  0
 11 37  1  0  0  0
 11 38  1  0  0  0
 12 13  1  0  0  0
 12 39  1  0  0  0
 12 40  1  0  0  0
 13 14  1  0  0  0
 13 15  2  0  0  0
 14 41  1  0  0  0
 14 42  1  0  0  0
 14 43  1  0  0  0
 44 45  1  0  0  0
 44 46  1  0  0  0
M  CHG  1  44   1
M  END
> <energy>
22.0368

> <chiral flag>
0

> <version>
0

> <i_ionizer_Ion_state_n>
1

> <i_ionizer_Tot_Q>
1

> <s_ionizer_Ion_centers>
44

> <s_ionizer_Ion_types>
N5

> <s_ionizer_Ion_ctrs_in>
9

> <r_ionizer_Ionization_penalty>
0.000148807

> <r_ionizer_Ionization_penalty_charging>
0.000148807

> <r_ionizer_Ionization_penalty_neutral>
0

$$$$
ZINC001258439896
                    3D
 Structure written by MMmdl.
 48 48  0  0  1  0            999 V2000
   -4.6012    0.2089   -1.6494 C   0  0  0  0  0  0
   -3.6130    0.9151   -0.7300 C   0  0  0  0  0  0
   -2.1528    0.6314   -1.0928 C   0  0  0  0  0  0
   -1.6579   -0.7927   -0.8266 C   0  0  0  0  0  0
   -1.5957   -1.2504    0.6432 C   0  0  0  0  0  0
   -0.7229   -0.4560    1.6439 C   0  0  2  0  0  0
   -1.4609    0.7261    2.3116 C   0  0  0  0  0  0
   -0.7814    1.1841    3.5991 C   0  0  0  0  0  0
    1.6433   -0.8911    1.1057 C   0  0  0  0  0  0
    2.3858   -1.0181   -0.2090 C   0  0  0  0  0  0
    2.3617   -2.2664   -0.8616 C   0  0  0  0  0  0
    3.0281   -2.4736   -2.0636 C   0  0  0  0  0  0
    3.7082   -1.4195   -2.6638 C   0  0  0  0  0  0
    3.7281   -0.1691   -2.0490 C   0  0  0  0  0  0
    3.1035    0.0491   -0.8042 C   0  0  0  0  0  0
    3.2897    1.4000   -0.1479 C   0  0  0  0  0  0
   -5.6260    0.5209   -1.4186 H   0  0  0  0  0  0
   -4.4046    0.4562   -2.6995 H   0  0  0  0  0  0
   -4.5474   -0.8771   -1.5353 H   0  0  0  0  0  0
   -3.8262    0.6480    0.3101 H   0  0  0  0  0  0
   -3.7785    1.9972   -0.8163 H   0  0  0  0  0  0
   -1.5167    1.3464   -0.5658 H   0  0  0  0  0  0
   -2.0123    0.8491   -2.1595 H   0  0  0  0  0  0
   -2.2806   -1.5074   -1.3781 H   0  0  0  0  0  0
   -0.6616   -0.8892   -1.2760 H   0  0  0  0  0  0
   -2.6145   -1.3461    1.0322 H   0  0  0  0  0  0
   -1.1955   -2.2719    0.6179 H   0  0  0  0  0  0
   -0.4766   -1.1377    2.4708 H   0  0  0  0  0  0
   -1.5358    1.5767    1.6265 H   0  0  0  0  0  0
   -2.4814    0.4214    2.5653 H   0  0  0  0  0  0
    0.2953    1.3451    3.4714 H   0  0  0  0  0  0
   -0.9191    0.4320    4.3863 H   0  0  0  0  0  0
   -1.2303    2.1188    3.9540 H   0  0  0  0  0  0
    2.3189   -0.5176    1.8848 H   0  0  0  0  0  0
    1.3445   -1.8948    1.4401 H   0  0  0  0  0  0
    1.8062   -3.0958   -0.4249 H   0  0  0  0  0  0
    3.0122   -3.4489   -2.5367 H   0  0  0  0  0  0
    4.2338   -1.5752   -3.6008 H   0  0  0  0  0  0
    4.2611    0.6419   -2.5483 H   0  0  0  0  0  0
    4.1064    1.9298   -0.6542 H   0  0  0  0  0  0
    3.6176    1.2665    0.8869 H   0  0  0  0  0  0
    2.3900    3.2183   -0.0141 H   0  0  0  0  0  0
    0.4898    0.0129    0.9407 N   0  3  0  0  0  0
    0.2769    0.0907   -0.0607 H   0  0  0  0  0  0
    0.7441    0.9369    1.3094 H   0  0  0  0  0  0
    2.1089    2.2518   -0.1788 N   0  3  0  0  0  0
    1.6555    2.1768   -1.0970 H   0  0  0  0  0  0
    1.4522    1.9549    0.5525 H   0  0  0  0  0  0
  1  2  1  0  0  0
  1 17  1  0  0  0
  1 18  1  0  0  0
  1 19  1  0  0  0
  2  3  1  0  0  0
  2 20  1  0  0  0
  2 21  1  0  0  0
  3  4  1  0  0  0
  3 22  1  0  0  0
  3 23  1  0  0  0
  4  5  1  0  0  0
  4 24  1  0  0  0
  4 25  1  0  0  0
  5  6  1  0  0  0
  5 26  1  0  0  0
  5 27  1  0  0  0
  6  7  1  0  0  0
  6 28  1  0  0  0
  6 43  1  0  0  0
  7  8  1  0  0  0
  7 29  1  0  0  0
  7 30  1  0  0  0
  8 31  1  0  0  0
  8 32  1  0  0  0
  8 33  1  0  0  0
  9 10  1  0  0  0
  9 34  1  0  0  0
  9 35  1  0  0  0
  9 43  1  0  0  0
 10 11  2  0  0  0
 10 15  1  0  0  0
 11 12  1  0  0  0
 11 36  1  0  0  0
 12 13  2  0  0  0
 12 37  1  0  0  0
 13 14  1  0  0  0
 13 38  1  0  0  0
 14 15  2  0  0  0
 14 39  1  0  0  0
 15 16  1  0  0  0
 16 40  1  0  0  0
 16 41  1  0  0  0
 16 46  1  0  0  0
 42 46  1  0  0  0
 43 44  1  0  0  0
 43 45  1  0  0  0
 46 47  1  0  0  0
 46 48  1  0  0  0
M  CHG  2  43   1  46   1
M  END
> <energy>
21.2704

> <chiral flag>
0

> <version>
0

> <i_ionizer_Ion_state_n>
3

> <i_ionizer_Tot_Q>
2

> <s_ionizer_Ion_centers>
43_46

> <s_ionizer_Ion_types>
N5_N5

> <s_ionizer_Ion_ctrs_in>
9_18

> <r_ionizer_Ionization_penalty>
0.000619248

> <r_ionizer_Ionization_penalty_charging>
0.000619248

> <r_ionizer_Ionization_penalty_neutral>
0

$$$$
ZINC001258439897
                    3D
 Structure written by MMmdl.
 48 48  0  0  1  0            999 V2000
   -1.5076   -3.3996    1.1630 C   0  0  0  0  0  0
   -2.6641   -2.4884    0.7707 C   0  0  0  0  0  0
   -2.3556   -1.7115   -0.5097 C   0  0  0  0  0  0
   -1.4599   -0.4856   -0.2814 C   0  0  0  0  0  0
   -2.2839    0.7649    0.0403 C   0  0  0  0  0  0
   -1.4864    2.0597    0.3298 C   0  0  1  0  0  0
   -1.1843    2.3256    1.8221 C   0  0  0  0  0  0
   -0.6997    1.1623    2.6728 C   0  0  0  0  0  0
    0.9662    2.1011   -0.3140 C   0  0  0  0  0  0
    1.6881    1.1776   -1.2845 C   0  0  0  0  0  0
    1.4899    1.3564   -2.6703 C   0  0  0  0  0  0
    2.0360    0.4786   -3.6037 C   0  0  0  0  0  0
    2.8186   -0.5847   -3.1740 C   0  0  0  0  0  0
    3.0992   -0.7315   -1.8185 C   0  0  0  0  0  0
    2.5813    0.1638   -0.8611 C   0  0  0  0  0  0
    3.0337   -0.0194    0.5691 C   0  0  0  0  0  0
   -0.5906   -2.8320    1.3535 H   0  0  0  0  0  0
   -1.2967   -4.1164    0.3611 H   0  0  0  0  0  0
   -1.7557   -3.9641    2.0661 H   0  0  0  0  0  0
   -3.5477   -3.1178    0.5999 H   0  0  0  0  0  0
   -2.9090   -1.8116    1.5978 H   0  0  0  0  0  0
   -3.2992   -1.4027   -0.9763 H   0  0  0  0  0  0
   -1.8645   -2.3859   -1.2224 H   0  0  0  0  0  0
   -0.7180   -0.6774    0.4977 H   0  0  0  0  0  0
   -0.9068   -0.3163   -1.2132 H   0  0  0  0  0  0
   -2.9243    0.9632   -0.8302 H   0  0  0  0  0  0
   -2.9732    0.5670    0.8692 H   0  0  0  0  0  0
   -2.2164    2.8497    0.0911 H   0  0  0  0  0  0
   -0.4793    3.1596    1.9077 H   0  0  0  0  0  0
   -2.1142    2.6867    2.2811 H   0  0  0  0  0  0
   -1.4495    0.3694    2.7359 H   0  0  0  0  0  0
    0.2331    0.7280    2.3156 H   0  0  0  0  0  0
   -0.5170    1.5144    3.6932 H   0  0  0  0  0  0
    1.4915    3.0626   -0.3301 H   0  0  0  0  0  0
    1.0668    1.7211    0.6967 H   0  0  0  0  0  0
    0.8839    2.1864   -3.0329 H   0  0  0  0  0  0
    1.8351    0.6147   -4.6614 H   0  0  0  0  0  0
    3.2259   -1.2908   -3.8913 H   0  0  0  0  0  0
    3.7505   -1.5472   -1.5037 H   0  0  0  0  0  0
    3.0753    0.9402    1.0960 H   0  0  0  0  0  0
    4.0673   -0.3899    0.5687 H   0  0  0  0  0  0
    2.1673   -1.8409    0.7891 H   0  0  0  0  0  0
   -0.4535    2.3781   -0.7187 N   0  3  0  0  0  0
   -0.6624    1.8170   -1.5528 H   0  0  0  0  0  0
   -0.5303    3.3757   -0.9493 H   0  0  0  0  0  0
    2.1918   -0.9535    1.2925 N   0  3  0  0  0  0
    2.5742   -1.1022    2.2337 H   0  0  0  0  0  0
    1.2410   -0.5729    1.3656 H   0  0  0  0  0  0
  1  2  1  0  0  0
  1 17  1  0  0  0
  1 18  1  0  0  0
  1 19  1  0  0  0
  2  3  1  0  0  0
  2 20  1  0  0  0
  2 21  1  0  0  0
  3  4  1  0  0  0
  3 22  1  0  0  0
  3 23  1  0  0  0
  4  5  1  0  0  0
  4 24  1  0  0  0
  4 25  1  0  0  0
  5  6  1  0  0  0
  5 26  1  0  0  0
  5 27  1  0  0  0
  6  7  1  0  0  0
  6 28  1  0  0  0
  6 43  1  0  0  0
  7  8  1  0  0  0
  7 29  1  0  0  0
  7 30  1  0  0  0
  8 31  1  0  0  0
  8 32  1  0  0  0
  8 33  1  0  0  0
  9 10  1  0  0  0
  9 34  1  0  0  0
  9 35  1  0  0  0
  9 43  1  0  0  0
 10 11  2  0  0  0
 10 15  1  0  0  0
 11 12  1  0  0  0
 11 36  1  0  0  0
 12 13  2  0  0  0
 12 37  1  0  0  0
 13 14  1  0  0  0
 13 38  1  0  0  0
 14 15  2  0  0  0
 14 39  1  0  0  0
 15 16  1  0  0  0
 16 40  1  0  0  0
 16 41  1  0  0  0
 16 46  1  0  0  0
 42 46  1  0  0  0
 43 44  1  0  0  0
 43 45  1  0  0  0
 46 47  1  0  0  0
 46 48  1  0  0  0
M  CHG  2  43   1  46   1
M  END
> <energy>
29.6526

> <chiral flag>
0

> <version>
0

> <i_ionizer_Ion_state_n>
3

> <i_ionizer_Tot_Q>
2

> <s_ionizer_Ion_centers>
43_46

> <s_ionizer_Ion_types>
N5_N5

> <s_ionizer_Ion_ctrs_in>
9_18

> <r_ionizer_Ionization_penalty>
0.000619248

> <r_ionizer_Ionization_penalty_charging>
0.000619248

> <r_ionizer_Ionization_penalty_neutral>
0

$$$$
ZINC001258439924
                    3D
 Structure written by MMmdl.
 53 52  0  0  1  0            999 V2000
   -0.8212    3.7977    3.3050 C   0  0  0  0  0  0
   -0.3845    2.7378    2.3042 C   0  0  0  0  0  0
   -1.5725    2.2158    1.4989 C   0  0  0  0  0  0
   -1.1767    1.0367    0.6087 C   0  0  0  0  0  0
   -2.4282    0.3565    0.0230 C   0  0  0  0  0  0
   -2.0889   -0.8575   -0.8679 C   0  0  2  0  0  0
   -3.3418   -1.4979   -1.5021 C   0  0  0  0  0  0
   -4.0770   -0.5960   -2.4845 C   0  0  0  0  0  0
   -0.6001   -2.7998   -0.7816 C   0  0  0  0  0  0
    0.4873   -3.4210    0.1050 C   0  0  0  0  0  0
    1.4747   -2.4288    0.7412 C   0  0  0  0  0  0
    2.1732   -1.5233   -0.2738 C   0  0  0  0  0  0
    3.2657   -0.6760    0.3862 C   0  0  0  0  0  0
    3.9743    0.2530   -0.6070 C   0  0  0  0  0  0
    3.1130    1.4472   -1.0255 C   0  0  0  0  0  0
   -1.2626    4.6608    2.7995 H   0  0  0  0  0  0
    0.0364    4.1443    3.8927 H   0  0  0  0  0  0
   -1.5620    3.3942    4.0032 H   0  0  0  0  0  0
    0.0912    1.9143    2.8515 H   0  0  0  0  0  0
    0.3731    3.1577    1.6296 H   0  0  0  0  0  0
   -2.3634    1.9046    2.1892 H   0  0  0  0  0  0
   -1.9846    3.0214    0.8795 H   0  0  0  0  0  0
   -0.5992    0.3167    1.2026 H   0  0  0  0  0  0
   -0.5263    1.3848   -0.2055 H   0  0  0  0  0  0
   -2.9854    1.1014   -0.5534 H   0  0  0  0  0  0
   -3.0839    0.0379    0.8442 H   0  0  0  0  0  0
   -1.4210   -0.5011   -1.6643 H   0  0  0  0  0  0
   -4.0405   -1.8112   -0.7185 H   0  0  0  0  0  0
   -3.0577   -2.4043   -2.0473 H   0  0  0  0  0  0
   -3.4073   -0.2440   -3.2767 H   0  0  0  0  0  0
   -4.5188    0.2737   -1.9874 H   0  0  0  0  0  0
   -4.8966   -1.1520   -2.9552 H   0  0  0  0  0  0
   -0.1275   -2.3332   -1.6522 H   0  0  0  0  0  0
   -1.2505   -3.5997   -1.1547 H   0  0  0  0  0  0
    1.0527   -4.1390   -0.5069 H   0  0  0  0  0  0
    0.0148   -4.0009    0.9106 H   0  0  0  0  0  0
    2.2256   -3.0035    1.2972 H   0  0  0  0  0  0
    0.9512   -1.8118    1.4803 H   0  0  0  0  0  0
    2.6133   -2.1303   -1.0745 H   0  0  0  0  0  0
    1.4350   -0.8603   -0.7361 H   0  0  0  0  0  0
    2.8427   -0.0878    1.2097 H   0  0  0  0  0  0
    4.0172   -1.3464    0.8229 H   0  0  0  0  0  0
    4.8949    0.6238   -0.1381 H   0  0  0  0  0  0
    4.2778   -0.3197   -1.4926 H   0  0  0  0  0  0
    2.8182    2.0250   -0.1420 H   0  0  0  0  0  0
    2.1925    1.1252   -1.5227 H   0  0  0  0  0  0
    4.7041    2.6382   -1.4852 H   0  0  0  0  0  0
   -1.3872   -1.8345    0.0052 N   0  3  0  0  0  0
   -0.7561   -1.3251    0.6349 H   0  0  0  0  0  0
   -2.0839   -2.3462    0.5593 H   0  0  0  0  0  0
    3.8427    2.3241   -1.9361 N   0  3  0  0  0  0
    4.0726    1.8111   -2.7953 H   0  0  0  0  0  0
    3.2608    3.1376   -2.1684 H   0  0  0  0  0  0
  1  2  1  0  0  0
  1 16  1  0  0  0
  1 17  1  0  0  0
  1 18  1  0  0  0
  2  3  1  0  0  0
  2 19  1  0  0  0
  2 20  1  0  0  0
  3  4  1  0  0  0
  3 21  1  0  0  0
  3 22  1  0  0  0
  4  5  1  0  0  0
  4 23  1  0  0  0
  4 24  1  0  0  0
  5  6  1  0  0  0
  5 25  1  0  0  0
  5 26  1  0  0  0
  6  7  1  0  0  0
  6 27  1  0  0  0
  6 48  1  0  0  0
  7  8  1  0  0  0
  7 28  1  0  0  0
  7 29  1  0  0  0
  8 30  1  0  0  0
  8 31  1  0  0  0
  8 32  1  0  0  0
  9 10  1  0  0  0
  9 33  1  0  0  0
  9 34  1  0  0  0
  9 48  1  0  0  0
 10 11  1  0  0  0
 10 35  1  0  0  0
 10 36  1  0  0  0
 11 12  1  0  0  0
 11 37  1  0  0  0
 11 38  1  0  0  0
 12 13  1  0  0  0
 12 39  1  0  0  0
 12 40  1  0  0  0
 13 14  1  0  0  0
 13 41  1  0  0  0
 13 42  1  0  0  0
 14 15  1  0  0  0
 14 43  1  0  0  0
 14 44  1  0  0  0
 15 45  1  0  0  0
 15 46  1  0  0  0
 15 51  1  0  0  0
 47 51  1  0  0  0
 48 49  1  0  0  0
 48 50  1  0  0  0
 51 52  1  0  0  0
 51 53  1  0  0  0
M  CHG  2  48   1  51   1
M  END
> <energy>
-4.90848

> <chiral flag>
0

> <version>
0

> <i_ionizer_Ion_state_n>
3

> <i_ionizer_Tot_Q>
2

> <s_ionizer_Ion_centers>
48_51

> <s_ionizer_Ion_types>
N5_N5

> <s_ionizer_Ion_ctrs_in>
9_17

> <r_ionizer_Ionization_penalty>
0.000619248

> <r_ionizer_Ionization_penalty_charging>
0.000619248

> <r_ionizer_Ionization_penalty_neutral>
0

$$$$
ZINC001258439925
                    3D
 Structure written by MMmdl.
 53 52  0  0  1  0            999 V2000
    1.2385    3.6550   -1.5080 C   0  0  0  0  0  0
    0.7981    2.7202   -2.6285 C   0  0  0  0  0  0
   -0.1463    1.6193   -2.1313 C   0  0  0  0  0  0
   -1.5698    2.1424   -1.9078 C   0  0  0  0  0  0
   -2.5085    1.2508   -1.0782 C   0  0  0  0  0  0
   -2.2558    1.2997    0.4499 C   0  0  1  0  0  0
   -3.5486    0.9754    1.2368 C   0  0  0  0  0  0
   -4.1067   -0.4281    1.0583 C   0  0  0  0  0  0
   -0.6645    0.4862    2.1511 C   0  0  0  0  0  0
    0.5374   -0.4494    2.3200 C   0  0  0  0  0  0
    1.8219    0.0473    1.6383 C   0  0  0  0  0  0
    2.6411   -1.1162    1.0678 C   0  0  0  0  0  0
    2.1434   -1.5418   -0.3198 C   0  0  0  0  0  0
    2.7965   -2.8345   -0.8286 C   0  0  0  0  0  0
    1.9845   -4.1035   -0.5448 C   0  0  0  0  0  0
    1.9525    4.3957   -1.8831 H   0  0  0  0  0  0
    1.7287    3.0995   -0.7008 H   0  0  0  0  0  0
    0.3938    4.1980   -1.0759 H   0  0  0  0  0  0
    1.6929    2.2597   -3.0640 H   0  0  0  0  0  0
    0.3244    3.3054   -3.4259 H   0  0  0  0  0  0
    0.2760    1.1770   -1.2270 H   0  0  0  0  0  0
   -0.1795    0.8215   -2.8813 H   0  0  0  0  0  0
   -2.0263    2.2788   -2.8988 H   0  0  0  0  0  0
   -1.5507    3.1380   -1.4503 H   0  0  0  0  0  0
   -3.5251    1.6129   -1.2745 H   0  0  0  0  0  0
   -2.4870    0.2219   -1.4529 H   0  0  0  0  0  0
   -1.9841    2.3327    0.7061 H   0  0  0  0  0  0
   -3.3867    1.1491    2.3075 H   0  0  0  0  0  0
   -4.3224    1.6926    0.9354 H   0  0  0  0  0  0
   -5.0858   -0.4969    1.5449 H   0  0  0  0  0  0
   -3.4556   -1.1799    1.5125 H   0  0  0  0  0  0
   -4.2503   -0.6824    0.0075 H   0  0  0  0  0  0
   -0.3959    1.5050    2.4462 H   0  0  0  0  0  0
   -1.4523    0.1426    2.8293 H   0  0  0  0  0  0
    0.2609   -1.4475    1.9564 H   0  0  0  0  0  0
    0.7420   -0.5704    3.3914 H   0  0  0  0  0  0
    2.4273    0.5657    2.3917 H   0  0  0  0  0  0
    1.6144    0.7822    0.8544 H   0  0  0  0  0  0
    3.6877   -0.7991    0.9742 H   0  0  0  0  0  0
    2.6287   -1.9504    1.7764 H   0  0  0  0  0  0
    2.3986   -0.7378   -1.0230 H   0  0  0  0  0  0
    1.0502   -1.6307   -0.3477 H   0  0  0  0  0  0
    2.9013   -2.7555   -1.9180 H   0  0  0  0  0  0
    3.8123   -2.9359   -0.4263 H   0  0  0  0  0  0
    2.4724   -4.9560   -1.0306 H   0  0  0  0  0  0
    0.9839   -4.0149   -0.9831 H   0  0  0  0  0  0
    2.7887   -4.4828    1.2911 H   0  0  0  0  0  0
   -1.1058    0.4049    0.7386 N   0  3  0  0  0  0
   -1.3823   -0.5628    0.5351 H   0  0  0  0  0  0
   -0.3210    0.6712    0.1325 H   0  0  0  0  0  0
    1.8583   -4.3811    0.8776 N   0  3  0  0  0  0
    1.3642   -3.6059    1.3348 H   0  0  0  0  0  0
    1.3285   -5.2505    1.0106 H   0  0  0  0  0  0
  1  2  1  0  0  0
  1 16  1  0  0  0
  1 17  1  0  0  0
  1 18  1  0  0  0
  2  3  1  0  0  0
  2 19  1  0  0  0
  2 20  1  0  0  0
  3  4  1  0  0  0
  3 21  1  0  0  0
  3 22  1  0  0  0
  4  5  1  0  0  0
  4 23  1  0  0  0
  4 24  1  0  0  0
  5  6  1  0  0  0
  5 25  1  0  0  0
  5 26  1  0  0  0
  6  7  1  0  0  0
  6 27  1  0  0  0
  6 48  1  0  0  0
  7  8  1  0  0  0
  7 28  1  0  0  0
  7 29  1  0  0  0
  8 30  1  0  0  0
  8 31  1  0  0  0
  8 32  1  0  0  0
  9 10  1  0  0  0
  9 33  1  0  0  0
  9 34  1  0  0  0
  9 48  1  0  0  0
 10 11  1  0  0  0
 10 35  1  0  0  0
 10 36  1  0  0  0
 11 12  1  0  0  0
 11 37  1  0  0  0
 11 38  1  0  0  0
 12 13  1  0  0  0
 12 39  1  0  0  0
 12 40  1  0  0  0
 13 14  1  0  0  0
 13 41  1  0  0  0
 13 42  1  0  0  0
 14 15  1  0  0  0
 14 43  1  0  0  0
 14 44  1  0  0  0
 15 45  1  0  0  0
 15 46  1  0  0  0
 15 51  1  0  0  0
 47 51  1  0  0  0
 48 49  1  0  0  0
 48 50  1  0  0  0
 51 52  1  0  0  0
 51 53  1  0  0  0
M  CHG  2  48   1  51   1
M  END
> <energy>
4.50335

> <chiral flag>
0

> <version>
0

> <i_ionizer_Ion_state_n>
3

> <i_ionizer_Tot_Q>
2

> <s_ionizer_Ion_centers>
48_51

> <s_ionizer_Ion_types>
N5_N5

> <s_ionizer_Ion_ctrs_in>
9_17

> <r_ionizer_Ionization_penalty>
0.000619248

> <r_ionizer_Ionization_penalty_charging>
0.000619248

> <r_ionizer_Ionization_penalty_neutral>
0

$$$$
ZINC001258439940
                    3D
 Structure written by MMmdl.
 41 41  0  0  1  0            999 V2000
   -2.2800    3.7972   -0.5585 C   0  0  0  0  0  0
   -2.6072    2.4380    0.0415 C   0  0  0  0  0  0
   -1.7991    1.3171   -0.6143 C   0  0  0  0  0  0
   -2.1011   -0.0405    0.0265 C   0  0  0  0  0  0
   -1.2964   -1.1823   -0.6165 C   0  0  0  0  0  0
   -0.5909   -2.1186    0.3972 C   0  0  1  0  0  0
   -0.6294   -3.5855   -0.1028 C   0  0  0  0  0  0
    0.1193   -3.8470   -1.4067 C   0  0  0  0  0  0
    1.0347   -0.5710    1.4490 C   0  0  0  0  0  0
    2.1331    0.3109    0.9119 C   0  0  0  0  0  0
    1.9936    1.7024    0.8838 C   0  0  0  0  0  0
    3.0260    2.4911    0.3853 C   0  0  0  0  0  0
    4.1780    1.8636   -0.0544 C   0  0  0  0  0  0
    5.1727    2.6227   -0.5354 F   0  0  0  0  0  0
    4.3678    0.5298   -0.0247 N   0  0  0  0  0  0
    3.3406   -0.2116    0.4515 C   0  0  0  0  0  0
   -1.2181    4.0366   -0.4371 H   0  0  0  0  0  0
   -2.8641    4.5796   -0.0621 H   0  0  0  0  0  0
   -2.5177    3.8234   -1.6271 H   0  0  0  0  0  0
   -3.6787    2.2413   -0.0790 H   0  0  0  0  0  0
   -2.4000    2.4651    1.1174 H   0  0  0  0  0  0
   -0.7301    1.5353   -0.5214 H   0  0  0  0  0  0
   -2.0254    1.2772   -1.6867 H   0  0  0  0  0  0
   -3.1690   -0.2589   -0.0956 H   0  0  0  0  0  0
   -1.9358    0.0145    1.1066 H   0  0  0  0  0  0
   -2.0003   -1.7649   -1.2249 H   0  0  0  0  0  0
   -0.5609   -0.7858   -1.3283 H   0  0  0  0  0  0
   -1.1200   -2.1097    1.3592 H   0  0  0  0  0  0
   -0.2186   -4.2455    0.6724 H   0  0  0  0  0  0
   -1.6765   -3.8881   -0.2324 H   0  0  0  0  0  0
   -0.0341   -4.8844   -1.7235 H   0  0  0  0  0  0
    1.1958   -3.6921   -1.2838 H   0  0  0  0  0  0
   -0.2323   -3.1976   -2.2131 H   0  0  0  0  0  0
    0.1315    0.0323    1.5604 H   0  0  0  0  0  0
    1.3033   -0.8981    2.4613 H   0  0  0  0  0  0
    1.0802    2.1764    1.2330 H   0  0  0  0  0  0
    2.9430    3.5701    0.3366 H   0  0  0  0  0  0
    3.5226   -1.2828    0.4460 H   0  0  0  0  0  0
    0.8463   -1.7586    0.5807 N   0  3  0  0  0  0
    1.3327   -2.5565    1.0061 H   0  0  0  0  0  0
    1.2550   -1.5599   -0.3400 H   0  0  0  0  0  0
  1  2  1  0  0  0
  1 17  1  0  0  0
  1 18  1  0  0  0
  1 19  1  0  0  0
  2  3  1  0  0  0
  2 20  1  0  0  0
  2 21  1  0  0  0
  3  4  1  0  0  0
  3 22  1  0  0  0
  3 23  1  0  0  0
  4  5  1  0  0  0
  4 24  1  0  0  0
  4 25  1  0  0  0
  5  6  1  0  0  0
  5 26  1  0  0  0
  5 27  1  0  0  0
  6  7  1  0  0  0
  6 28  1  0  0  0
  6 39  1  0  0  0
  7  8  1  0  0  0
  7 29  1  0  0  0
  7 30  1  0  0  0
  8 31  1  0  0  0
  8 32  1  0  0  0
  8 33  1  0  0  0
  9 10  1  0  0  0
  9 34  1  0  0  0
  9 35  1  0  0  0
  9 39  1  0  0  0
 10 11  2  0  0  0
 10 16  1  0  0  0
 11 12  1  0  0  0
 11 36  1  0  0  0
 12 13  2  0  0  0
 12 37  1  0  0  0
 13 14  1  0  0  0
 13 15  1  0  0  0
 15 16  2  0  0  0
 16 38  1  0  0  0
 39 40  1  0  0  0
 39 41  1  0  0  0
M  CHG  1  39   1
M  END
> <energy>
18.5422

> <chiral flag>
0

> <version>
0

> <i_ionizer_Ion_state_n>
1

> <i_ionizer_Tot_Q>
1

> <s_ionizer_Ion_centers>
39

> <s_ionizer_Ion_types>
N5

> <s_ionizer_Ion_ctrs_in>
9

> <r_ionizer_Ionization_penalty>
0.0075612

> <r_ionizer_Ionization_penalty_charging>
0.000148807

> <r_ionizer_Ionization_penalty_neutral>
0.00741239

$$$$
ZINC001258439941
                    3D
 Structure written by MMmdl.
 41 41  0  0  1  0            999 V2000
   -0.9333    1.3318   -3.5747 C   0  0  0  0  0  0
   -1.2190   -0.0355   -2.9772 C   0  0  0  0  0  0
   -1.8473    0.0815   -1.5925 C   0  0  0  0  0  0
   -2.0845   -1.2633   -0.9005 C   0  0  0  0  0  0
   -0.8510   -2.1574   -0.6838 C   0  0  0  0  0  0
    0.4197   -1.5038   -0.0798 C   0  0  2  0  0  0
    1.4786   -2.6106    0.1681 C   0  0  0  0  0  0
    2.7941   -2.3182   -0.5369 C   0  0  0  0  0  0
    1.1845    0.0536    1.6671 C   0  0  0  0  0  0
    0.6467    1.2960    2.3378 C   0  0  0  0  0  0
    0.8769    2.5674    1.8067 C   0  0  0  0  0  0
    0.3006    3.6813    2.4128 C   0  0  0  0  0  0
   -0.4879    3.4842    3.5347 C   0  0  0  0  0  0
   -1.0637    4.5534    4.1015 F   0  0  0  0  0  0
   -0.7238    2.2750    4.0873 N   0  0  0  0  0  0
   -0.1597    1.2111    3.4725 C   0  0  0  0  0  0
   -0.2543    1.9049   -2.9365 H   0  0  0  0  0  0
   -1.8494    1.9127   -3.7039 H   0  0  0  0  0  0
   -0.4594    1.2215   -4.5532 H   0  0  0  0  0  0
   -1.8897   -0.5883   -3.6434 H   0  0  0  0  0  0
   -0.2785   -0.5912   -2.9300 H   0  0  0  0  0  0
   -1.2299    0.7264   -0.9583 H   0  0  0  0  0  0
   -2.8141    0.5922   -1.6841 H   0  0  0  0  0  0
   -2.5564   -1.0721    0.0719 H   0  0  0  0  0  0
   -2.8207   -1.8359   -1.4814 H   0  0  0  0  0  0
   -1.1641   -3.0024   -0.0536 H   0  0  0  0  0  0
   -0.5736   -2.5963   -1.6520 H   0  0  0  0  0  0
    0.8007   -0.7868   -0.8197 H   0  0  0  0  0  0
    1.1209   -3.5842   -0.1893 H   0  0  0  0  0  0
    1.6676   -2.7471    1.2396 H   0  0  0  0  0  0
    3.5275   -3.0975   -0.3111 H   0  0  0  0  0  0
    3.2113   -1.3587   -0.2233 H   0  0  0  0  0  0
    2.6542   -2.2957   -1.6211 H   0  0  0  0  0  0
    1.7782   -0.5189    2.3895 H   0  0  0  0  0  0
    1.8715    0.3641    0.8693 H   0  0  0  0  0  0
    1.4869    2.6977    0.9153 H   0  0  0  0  0  0
    0.4446    4.6802    2.0177 H   0  0  0  0  0  0
   -0.3929    0.2444    3.9122 H   0  0  0  0  0  0
    0.0575   -0.7717    1.1672 N   0  3  0  0  0  0
   -0.7428   -0.1587    0.9725 H   0  0  0  0  0  0
   -0.2015   -1.4535    1.8899 H   0  0  0  0  0  0
  1  2  1  0  0  0
  1 17  1  0  0  0
  1 18  1  0  0  0
  1 19  1  0  0  0
  2  3  1  0  0  0
  2 20  1  0  0  0
  2 21  1  0  0  0
  3  4  1  0  0  0
  3 22  1  0  0  0
  3 23  1  0  0  0
  4  5  1  0  0  0
  4 24  1  0  0  0
  4 25  1  0  0  0
  5  6  1  0  0  0
  5 26  1  0  0  0
  5 27  1  0  0  0
  6  7  1  0  0  0
  6 28  1  0  0  0
  6 39  1  0  0  0
  7  8  1  0  0  0
  7 29  1  0  0  0
  7 30  1  0  0  0
  8 31  1  0  0  0
  8 32  1  0  0  0
  8 33  1  0  0  0
  9 10  1  0  0  0
  9 34  1  0  0  0
  9 35  1  0  0  0
  9 39  1  0  0  0
 10 11  2  0  0  0
 10 16  1  0  0  0
 11 12  1  0  0  0
 11 36  1  0  0  0
 12 13  2  0  0  0
 12 37  1  0  0  0
 13 14  1  0  0  0
 13 15  1  0  0  0
 15 16  2  0  0  0
 16 38  1  0  0  0
 39 40  1  0  0  0
 39 41  1  0  0  0
M  CHG  1  39   1
M  END
> <energy>
16.0488

> <chiral flag>
0

> <version>
0

> <i_ionizer_Ion_state_n>
1

> <i_ionizer_Tot_Q>
1

> <s_ionizer_Ion_centers>
39

> <s_ionizer_Ion_types>
N5

> <s_ionizer_Ion_ctrs_in>
9

> <r_ionizer_Ionization_penalty>
0.0075612

> <r_ionizer_Ionization_penalty_charging>
0.000148807

> <r_ionizer_Ionization_penalty_neutral>
0.00741239

$$$$
ZINC001258439946
                    3D
 Structure written by MMmdl.
 41 41  0  0  1  0            999 V2000
   -3.2041    1.9239   -2.2038 C   0  0  0  0  0  0
   -3.1204    0.7454   -1.2421 C   0  0  0  0  0  0
   -1.9177   -0.1450   -1.5725 C   0  0  0  0  0  0
   -1.7541   -1.3154   -0.5941 C   0  0  0  0  0  0
   -0.4836   -2.1497   -0.8658 C   0  0  0  0  0  0
    0.7509   -1.7744    0.0026 C   0  0  1  0  0  0
    1.8430   -2.8644   -0.1971 C   0  0  0  0  0  0
    3.1040   -2.6959    0.6377 C   0  0  0  0  0  0
    1.9726    0.2787    0.6384 C   0  0  0  0  0  0
    1.2258    1.4519    1.2322 C   0  0  0  0  0  0
   -0.0970    1.3339    1.6554 C   0  0  0  0  0  0
   -0.7235    2.4210    2.2509 C   0  0  0  0  0  0
   -0.1200    3.5994    2.4921 N   0  0  0  0  0  0
    1.1698    3.6860    2.1089 C   0  0  0  0  0  0
    1.8151    4.8304    2.3692 F   0  0  0  0  0  0
    1.8694    2.6631    1.4794 C   0  0  0  0  0  0
   -2.2962    2.5348   -2.1566 H   0  0  0  0  0  0
   -3.3286    1.5712   -3.2303 H   0  0  0  0  0  0
   -4.0583    2.5647   -1.9608 H   0  0  0  0  0  0
   -3.0456    1.1227   -0.2135 H   0  0  0  0  0  0
   -4.0405    0.1534   -1.3139 H   0  0  0  0  0  0
   -2.0471   -0.5573   -2.5822 H   0  0  0  0  0  0
   -1.0078    0.4635   -1.5932 H   0  0  0  0  0  0
   -2.6283   -1.9684   -0.7070 H   0  0  0  0  0  0
   -1.7775   -0.9764    0.4439 H   0  0  0  0  0  0
   -0.2301   -2.1142   -1.9368 H   0  0  0  0  0  0
   -0.7387   -3.1976   -0.6593 H   0  0  0  0  0  0
    0.4255   -1.7854    1.0522 H   0  0  0  0  0  0
    2.1220   -2.9277   -1.2584 H   0  0  0  0  0  0
    1.4081   -3.8381    0.0676 H   0  0  0  0  0  0
    2.8649   -2.5135    1.6883 H   0  0  0  0  0  0
    3.7118   -3.6044    0.5979 H   0  0  0  0  0  0
    3.7271   -1.8817    0.2621 H   0  0  0  0  0  0
    2.8894    0.6457    0.1596 H   0  0  0  0  0  0
    2.2899   -0.3563    1.4715 H   0  0  0  0  0  0
   -0.6410    0.4122    1.5265 H   0  0  0  0  0  0
   -1.7592    2.3472    2.5698 H   0  0  0  0  0  0
    2.9082    2.8226    1.2189 H   0  0  0  0  0  0
    1.1935   -0.4171   -0.4166 N   0  3  0  0  0  0
    1.7804   -0.5063   -1.2543 H   0  0  0  0  0  0
    0.3639    0.1458   -0.6383 H   0  0  0  0  0  0
  1  2  1  0  0  0
  1 17  1  0  0  0
  1 18  1  0  0  0
  1 19  1  0  0  0
  2  3  1  0  0  0
  2 20  1  0  0  0
  2 21  1  0  0  0
  3  4  1  0  0  0
  3 22  1  0  0  0
  3 23  1  0  0  0
  4  5  1  0  0  0
  4 24  1  0  0  0
  4 25  1  0  0  0
  5  6  1  0  0  0
  5 26  1  0  0  0
  5 27  1  0  0  0
  6  7  1  0  0  0
  6 28  1  0  0  0
  6 39  1  0  0  0
  7  8  1  0  0  0
  7 29  1  0  0  0
  7 30  1  0  0  0
  8 31  1  0  0  0
  8 32  1  0  0  0
  8 33  1  0  0  0
  9 10  1  0  0  0
  9 34  1  0  0  0
  9 35  1  0  0  0
  9 39  1  0  0  0
 10 11  2  0  0  0
 10 16  1  0  0  0
 11 12  1  0  0  0
 11 36  1  0  0  0
 12 13  2  0  0  0
 12 37  1  0  0  0
 13 14  1  0  0  0
 14 15  1  0  0  0
 14 16  2  0  0  0
 16 38  1  0  0  0
 39 40  1  0  0  0
 39 41  1  0  0  0
M  CHG  1  39   1
M  END
> <energy>
11.5386

> <chiral flag>
0

> <version>
0

> <i_ionizer_Ion_state_n>
1

> <i_ionizer_Tot_Q>
1

> <s_ionizer_Ion_centers>
39

> <s_ionizer_Ion_types>
N5

> <s_ionizer_Ion_ctrs_in>
9

> <r_ionizer_Ionization_penalty>
0.0075612

> <r_ionizer_Ionization_penalty_charging>
0.000148807

> <r_ionizer_Ionization_penalty_neutral>
0.00741239

$$$$
ZINC001258439947
                    3D
 Structure written by MMmdl.
 41 41  0  0  1  0            999 V2000
   -3.8753   -2.4689    0.9055 C   0  0  0  0  0  0
   -3.7294   -1.6563   -0.3741 C   0  0  0  0  0  0
   -3.6509   -0.1463   -0.1193 C   0  0  0  0  0  0
   -2.3033    0.3386    0.4356 C   0  0  0  0  0  0
   -1.2109    0.4587   -0.6387 C   0  0  0  0  0  0
    0.1981    0.7544   -0.0670 C   0  0  2  0  0  0
    0.2737    1.9881    0.8549 C   0  0  0  0  0  0
   -0.1675    3.3008    0.2240 C   0  0  0  0  0  0
    1.8858   -0.2670   -1.5256 C   0  0  0  0  0  0
    3.0127   -0.5720   -0.5700 C   0  0  0  0  0  0
    3.0911   -1.8037    0.0867 C   0  0  0  0  0  0
    4.1754   -2.0450    0.9167 C   0  0  0  0  0  0
    5.1697   -1.1591    1.1381 N   0  0  0  0  0  0
    5.0660    0.0284    0.5052 C   0  0  0  0  0  0
    6.0402    0.9282    0.7133 F   0  0  0  0  0  0
    4.0271    0.3650   -0.3422 C   0  0  0  0  0  0
   -4.7427   -2.1326    1.4848 H   0  0  0  0  0  0
   -4.0212   -3.5271    0.6623 H   0  0  0  0  0  0
   -2.9869   -2.3896    1.5396 H   0  0  0  0  0  0
   -4.6067   -1.8542   -1.0011 H   0  0  0  0  0  0
   -2.8576   -2.0046   -0.9365 H   0  0  0  0  0  0
   -3.8699    0.3861   -1.0538 H   0  0  0  0  0  0
   -4.4436    0.1316    0.5877 H   0  0  0  0  0  0
   -1.9677   -0.3138    1.2448 H   0  0  0  0  0  0
   -2.4694    1.3302    0.8723 H   0  0  0  0  0  0
   -1.1636   -0.4730   -1.2165 H   0  0  0  0  0  0
   -1.5050    1.2410   -1.3505 H   0  0  0  0  0  0
    0.4897   -0.1047    0.5514 H   0  0  0  0  0  0
    1.3078    2.1053    1.2083 H   0  0  0  0  0  0
   -0.3231    1.8099    1.7573 H   0  0  0  0  0  0
   -1.2172    3.2637   -0.0802 H   0  0  0  0  0  0
    0.4370    3.5519   -0.6531 H   0  0  0  0  0  0
   -0.0577    4.1183    0.9449 H   0  0  0  0  0  0
    1.2018   -1.1181   -1.6279 H   0  0  0  0  0  0
    2.3378   -0.1238   -2.5151 H   0  0  0  0  0  0
    2.3247   -2.5601   -0.0425 H   0  0  0  0  0  0
    4.2747   -2.9892    1.4409 H   0  0  0  0  0  0
    4.0099    1.3437   -0.8106 H   0  0  0  0  0  0
    1.1685    0.9739   -1.1775 N   0  3  0  0  0  0
    0.6590    1.3071   -2.0043 H   0  0  0  0  0  0
    1.8518    1.6833   -0.8877 H   0  0  0  0  0  0
  1  2  1  0  0  0
  1 17  1  0  0  0
  1 18  1  0  0  0
  1 19  1  0  0  0
  2  3  1  0  0  0
  2 20  1  0  0  0
  2 21  1  0  0  0
  3  4  1  0  0  0
  3 22  1  0  0  0
  3 23  1  0  0  0
  4  5  1  0  0  0
  4 24  1  0  0  0
  4 25  1  0  0  0
  5  6  1  0  0  0
  5 26  1  0  0  0
  5 27  1  0  0  0
  6  7  1  0  0  0
  6 28  1  0  0  0
  6 39  1  0  0  0
  7  8  1  0  0  0
  7 29  1  0  0  0
  7 30  1  0  0  0
  8 31  1  0  0  0
  8 32  1  0  0  0
  8 33  1  0  0  0
  9 10  1  0  0  0
  9 34  1  0  0  0
  9 35  1  0  0  0
  9 39  1  0  0  0
 10 11  2  0  0  0
 10 16  1  0  0  0
 11 12  1  0  0  0
 11 36  1  0  0  0
 12 13  2  0  0  0
 12 37  1  0  0  0
 13 14  1  0  0  0
 14 15  1  0  0  0
 14 16  2  0  0  0
 16 38  1  0  0  0
 39 40  1  0  0  0
 39 41  1  0  0  0
M  CHG  1  39   1
M  END
> <energy>
7.57126

> <chiral flag>
0

> <version>
0

> <i_ionizer_Ion_state_n>
1

> <i_ionizer_Tot_Q>
1

> <s_ionizer_Ion_centers>
39

> <s_ionizer_Ion_types>
N5

> <s_ionizer_Ion_ctrs_in>
9

> <r_ionizer_Ionization_penalty>
0.0075612

> <r_ionizer_Ionization_penalty_charging>
0.000148807

> <r_ionizer_Ionization_penalty_neutral>
0.00741239

$$$$
ZINC001258440019
                    3D
 Structure written by MMmdl.
 43 44  0  0  1  0            999 V2000
   -3.8771    1.7947    2.4245 C   0  0  0  0  0  0
   -3.1046    1.8688    1.1159 C   0  0  0  0  0  0
   -2.5023    0.5135    0.7423 C   0  0  0  0  0  0
   -1.8141    0.5703   -0.6231 C   0  0  0  0  0  0
   -1.2340   -0.7854   -1.0517 C   0  0  0  0  0  0
    0.0157   -1.2530   -0.2562 C   0  0  1  0  0  0
    0.4683   -2.6639   -0.7123 C   0  0  0  0  0  0
   -0.5243   -3.7631   -0.3503 C   0  0  0  0  0  0
    2.0043   -0.2889    0.8052 C   0  0  0  0  0  0
    3.0645    0.7772    0.7604 C   0  0  2  0  0  0
    2.7197    2.2321    0.5779 C   0  0  0  0  0  0
    3.3999    1.4706   -0.5378 C   0  0  2  0  0  0
    2.6299    1.1121   -1.7731 C   0  0  1  0  0  0
    3.5267    0.9300   -2.7849 F   0  0  0  0  0  0
    1.8242   -0.1881   -1.6018 C   0  0  0  0  0  0
   -4.7547    1.1498    2.3191 H   0  0  0  0  0  0
   -4.2225    2.7915    2.7188 H   0  0  0  0  0  0
   -3.2550    1.3969    3.2331 H   0  0  0  0  0  0
   -2.3059    2.6141    1.2088 H   0  0  0  0  0  0
   -3.7806    2.2110    0.3235 H   0  0  0  0  0  0
   -3.2925   -0.2458    0.7208 H   0  0  0  0  0  0
   -1.7855    0.2163    1.5152 H   0  0  0  0  0  0
   -2.5515    0.8747   -1.3758 H   0  0  0  0  0  0
   -1.0363    1.3431   -0.6224 H   0  0  0  0  0  0
   -2.0317   -1.5309   -0.9582 H   0  0  0  0  0  0
   -0.9935   -0.7362   -2.1197 H   0  0  0  0  0  0
   -0.2940   -1.3375    0.7928 H   0  0  0  0  0  0
    0.6294   -2.6850   -1.7957 H   0  0  0  0  0  0
    1.4237   -2.9221   -0.2447 H   0  0  0  0  0  0
   -0.1009   -4.7464   -0.5834 H   0  0  0  0  0  0
   -0.7567   -3.7458    0.7188 H   0  0  0  0  0  0
   -1.4598   -3.6696   -0.9084 H   0  0  0  0  0  0
    1.4549   -0.1744    1.7475 H   0  0  0  0  0  0
    2.5053   -1.2629    0.8355 H   0  0  0  0  0  0
    3.8843    0.5450    1.4323 H   0  0  0  0  0  0
    3.3031    2.9637    1.1254 H   0  0  0  0  0  0
    1.6761    2.5060    0.4641 H   0  0  0  0  0  0
    4.4366    1.7000   -0.7493 H   0  0  0  0  0  0
    1.9750    1.9417   -2.0631 H   0  0  0  0  0  0
    2.5075   -1.0457   -1.6692 H   0  0  0  0  0  0
    1.1576   -0.2631   -2.4671 H   0  0  0  0  0  0
    1.0577   -0.1600   -0.3206 N   0  3  1  0  0  0
    0.5781    0.7450   -0.2485 H   0  0  0  0  0  0
  1  2  1  0  0  0
  1 16  1  0  0  0
  1 17  1  0  0  0
  1 18  1  0  0  0
  2  3  1  0  0  0
  2 19  1  0  0  0
  2 20  1  0  0  0
  3  4  1  0  0  0
  3 21  1  0  0  0
  3 22  1  0  0  0
  4  5  1  0  0  0
  4 23  1  0  0  0
  4 24  1  0  0  0
  5  6  1  0  0  0
  5 25  1  0  0  0
  5 26  1  0  0  0
  6  7  1  0  0  0
  6 27  1  0  0  0
  6 42  1  0  0  0
  7  8  1  0  0  0
  7 28  1  0  0  0
  7 29  1  0  0  0
  8 30  1  0  0  0
  8 31  1  0  0  0
  8 32  1  0  0  0
  9 10  1  0  0  0
  9 33  1  0  0  0
  9 34  1  0  0  0
  9 42  1  0  0  0
 10 11  1  0  0  0
 10 12  1  0  0  0
 10 35  1  0  0  0
 11 12  1  0  0  0
 11 36  1  0  0  0
 11 37  1  0  0  0
 12 13  1  0  0  0
 12 38  1  0  0  0
 13 14  1  0  0  0
 13 15  1  0  0  0
 13 39  1  0  0  0
 15 40  1  0  0  0
 15 41  1  0  0  0
 15 42  1  0  0  0
 42 43  1  0  0  0
M  CHG  1  42   1
M  END
> <energy>
62.4961

> <chiral flag>
0

> <version>
0

> <i_ionizer_Ion_state_n>
1

> <i_ionizer_Tot_Q>
1

> <s_ionizer_Ion_centers>
42

> <s_ionizer_Ion_types>
N5

> <s_ionizer_Ion_ctrs_in>
9

> <r_ionizer_Ionization_penalty>
0.00148639

> <r_ionizer_Ionization_penalty_charging>
0.00148639

> <r_ionizer_Ionization_penalty_neutral>
0

$$$$
ZINC001258440022
                    3D
 Structure written by MMmdl.
 43 44  0  0  1  0            999 V2000
    0.8869    2.3912   -2.7721 C   0  0  0  0  0  0
   -0.5014    1.8772   -2.4241 C   0  0  0  0  0  0
   -0.6221    0.3933   -2.7516 C   0  0  0  0  0  0
   -1.6517   -0.3205   -1.8804 C   0  0  0  0  0  0
   -1.0691   -1.4778   -1.0185 C   0  0  0  0  0  0
    0.0824   -1.2410    0.0278 C   0  0  3  0  0  0
    1.2846   -1.9054   -0.8478 C   0  0  0  0  0  0
    1.4907   -3.3452   -0.3857 C   0  0  0  0  0  0
   -1.4420   -0.1897    1.6947 C   0  0  0  0  0  0
   -0.8589   -0.1580    3.0800 C   0  0  2  0  0  0
   -0.8142    1.1821    3.7830 C   0  0  0  0  0  0
    0.4658    0.4922    3.3836 C   0  0  2  0  0  0
    1.2989    0.9238    2.2218 C   0  0  2  0  0  0
    1.9384    2.0755    2.5636 F   0  0  0  0  0  0
    0.4620    1.1569    0.9505 C   0  0  0  0  0  0
    0.9819    3.4506   -2.5115 H   0  0  0  0  0  0
    1.0924    2.2766   -3.8406 H   0  0  0  0  0  0
    1.6597    1.8428   -2.2204 H   0  0  0  0  0  0
   -0.6846    2.0714   -1.3660 H   0  0  0  0  0  0
   -1.2538    2.4453   -2.9812 H   0  0  0  0  0  0
   -0.9055    0.2900   -3.8081 H   0  0  0  0  0  0
    0.3500   -0.0867   -2.6592 H   0  0  0  0  0  0
   -2.2030    0.3812   -1.2414 H   0  0  0  0  0  0
   -2.4238   -0.7549   -2.5374 H   0  0  0  0  0  0
   -1.9179   -1.9088   -0.4694 H   0  0  0  0  0  0
   -0.8308   -2.2878   -1.7196 H   0  0  0  0  0  0
    0.9699   -0.6877    0.2427 H   0  0  0  0  0  0
    1.1178   -1.8649   -1.9308 H   0  0  0  0  0  0
    2.2614   -1.3997   -0.7061 H   0  0  0  0  0  0
    0.5928   -3.9522   -0.5306 H   0  0  0  0  0  0
    1.7531   -3.3619    0.6786 H   0  0  0  0  0  0
    2.3185   -3.7931   -0.9511 H   0  0  0  0  0  0
   -1.9728   -1.1356    1.5614 H   0  0  0  0  0  0
   -2.2271    0.5710    1.6193 H   0  0  0  0  0  0
   -1.1539   -1.0162    3.6689 H   0  0  0  0  0  0
   -1.0774    1.2140    4.8358 H   0  0  0  0  0  0
   -1.1035    2.0772    3.2421 H   0  0  0  0  0  0
    1.0779    0.0979    4.1893 H   0  0  0  0  0  0
    2.0728    0.1762    2.0345 H   0  0  0  0  0  0
    1.1445    1.3619    0.1080 H   0  0  0  0  0  0
   -0.1078    2.0831    1.0747 H   0  0  0  0  0  0
   -0.5563    0.0919    0.5439 N   0  3  1  0  0  0
   -1.1247    0.4792   -0.2184 H   0  0  0  0  0  0
  1  2  1  0  0  0
  1 16  1  0  0  0
  1 17  1  0  0  0
  1 18  1  0  0  0
  2  3  1  0  0  0
  2 19  1  0  0  0
  2 20  1  0  0  0
  3  4  1  0  0  0
  3 21  1  0  0  0
  3 22  1  0  0  0
  4  5  1  0  0  0
  4 23  1  0  0  0
  4 24  1  0  0  0
  5  6  1  0  0  0
  5 25  1  0  0  0
  5 26  1  0  0  0
  6  7  1  0  0  0
  6 27  1  0  0  0
  6 42  1  0  0  0
  7  8  1  0  0  0
  7 28  1  0  0  0
  7 29  1  0  0  0
  8 30  1  0  0  0
  8 31  1  0  0  0
  8 32  1  0  0  0
  9 10  1  0  0  0
  9 33  1  0  0  0
  9 34  1  0  0  0
  9 42  1  0  0  0
 10 11  1  0  0  0
 10 12  1  0  0  0
 10 35  1  0  0  0
 11 12  1  0  0  0
 11 36  1  0  0  0
 11 37  1  0  0  0
 12 13  1  0  0  0
 12 38  1  0  0  0
 13 14  1  0  0  0
 13 15  1  0  0  0
 13 39  1  0  0  0
 15 40  1  0  0  0
 15 41  1  0  0  0
 15 42  1  0  0  0
 42 43  1  0  0  0
M  CHG  1  42   1
M  END
> <energy>
178.634

> <chiral flag>
0

> <version>
0

> <i_ionizer_Ion_state_n>
1

> <i_ionizer_Tot_Q>
1

> <s_ionizer_Ion_centers>
42

> <s_ionizer_Ion_types>
N5

> <s_ionizer_Ion_ctrs_in>
9

> <r_ionizer_Ionization_penalty>
0.00148639

> <r_ionizer_Ionization_penalty_charging>
0.00148639

> <r_ionizer_Ionization_penalty_neutral>
0

$$$$
ZINC001258440031
                    3D
 Structure written by MMmdl.
 43 44  0  0  1  0            999 V2000
   -4.4021    0.9634   -1.4292 C   0  0  0  0  0  0
   -3.8145    1.3685   -0.0843 C   0  0  0  0  0  0
   -3.5444    0.1828    0.8498 C   0  0  0  0  0  0
   -2.4349   -0.7668    0.3817 C   0  0  0  0  0  0
   -1.0280   -0.1847    0.5862 C   0  0  0  0  0  0
    0.0595   -0.8547   -0.2950 C   0  0  2  0  0  0
    0.0978   -2.3919   -0.1122 C   0  0  0  0  0  0
    1.0878   -3.0835   -1.0441 C   0  0  0  0  0  0
    2.0407   -0.3560    1.1426 C   0  0  0  0  0  0
    3.4341    0.2339    1.1387 C   0  0  2  0  0  0
    3.6344    1.6864    1.5254 C   0  0  0  0  0  0
    3.8467    1.2500    0.1006 C   0  0  2  0  0  0
    2.8825    1.5741   -0.9963 C   0  0  2  0  0  0
    2.9121    2.9179   -1.2059 F   0  0  0  0  0  0
    1.4463    1.1418   -0.6724 C   0  0  0  0  0  0
   -5.3097    0.3661   -1.2985 H   0  0  0  0  0  0
   -3.6915    0.3888   -2.0302 H   0  0  0  0  0  0
   -4.6692    1.8540   -2.0063 H   0  0  0  0  0  0
   -4.5223    2.0423    0.4112 H   0  0  0  0  0  0
   -2.9069    1.9556   -0.2498 H   0  0  0  0  0  0
   -4.4729   -0.3905    0.9651 H   0  0  0  0  0  0
   -3.2914    0.5687    1.8451 H   0  0  0  0  0  0
   -2.5150   -1.6932    0.9657 H   0  0  0  0  0  0
   -2.5918   -1.0415   -0.6665 H   0  0  0  0  0  0
   -0.7750   -0.2669    1.6485 H   0  0  0  0  0  0
   -1.0502    0.8835    0.3564 H   0  0  0  0  0  0
   -0.2526   -0.7058   -1.3392 H   0  0  0  0  0  0
   -0.8882   -2.8087   -0.3398 H   0  0  0  0  0  0
    0.3103   -2.6613    0.9263 H   0  0  0  0  0  0
    2.1140   -2.7419   -0.8833 H   0  0  0  0  0  0
    0.8243   -2.8963   -2.0911 H   0  0  0  0  0  0
    1.0724   -4.1656   -0.8756 H   0  0  0  0  0  0
    1.4464    0.1219    1.9286 H   0  0  0  0  0  0
    2.1464   -1.4112    1.4186 H   0  0  0  0  0  0
    4.1815   -0.4791    1.4694 H   0  0  0  0  0  0
    4.5123    1.9396    2.1115 H   0  0  0  0  0  0
    2.7663    2.2965    1.7520 H   0  0  0  0  0  0
    4.8666    1.2322   -0.2644 H   0  0  0  0  0  0
    3.2114    1.0888   -1.9219 H   0  0  0  0  0  0
    1.0050    1.8355    0.0526 H   0  0  0  0  0  0
    0.8571    1.2544   -1.5918 H   0  0  0  0  0  0
    1.4539   -0.2703   -0.2300 N   0  3  2  0  0  0
    2.0523   -0.8082   -0.8679 H   0  0  0  0  0  0
  1  2  1  0  0  0
  1 16  1  0  0  0
  1 17  1  0  0  0
  1 18  1  0  0  0
  2  3  1  0  0  0
  2 19  1  0  0  0
  2 20  1  0  0  0
  3  4  1  0  0  0
  3 21  1  0  0  0
  3 22  1  0  0  0
  4  5  1  0  0  0
  4 23  1  0  0  0
  4 24  1  0  0  0
  5  6  1  0  0  0
  5 25  1  0  0  0
  5 26  1  0  0  0
  6  7  1  0  0  0
  6 27  1  0  0  0
  6 42  1  0  0  0
  7  8  1  0  0  0
  7 28  1  0  0  0
  7 29  1  0  0  0
  8 30  1  0  0  0
  8 31  1  0  0  0
  8 32  1  0  0  0
  9 10  1  0  0  0
  9 33  1  0  0  0
  9 34  1  0  0  0
  9 42  1  0  0  0
 10 11  1  0  0  0
 10 12  1  0  0  0
 10 35  1  0  0  0
 11 12  1  0  0  0
 11 36  1  0  0  0
 11 37  1  0  0  0
 12 13  1  0  0  0
 12 38  1  0  0  0
 13 14  1  0  0  0
 13 15  1  0  0  0
 13 39  1  0  0  0
 15 40  1  0  0  0
 15 41  1  0  0  0
 15 42  1  0  0  0
 42 43  1  0  0  0
M  CHG  1  42   1
M  END
> <energy>
65.4899

> <chiral flag>
0

> <version>
0

> <i_ionizer_Ion_state_n>
1

> <i_ionizer_Tot_Q>
1

> <s_ionizer_Ion_centers>
42

> <s_ionizer_Ion_types>
N5

> <s_ionizer_Ion_ctrs_in>
9

> <r_ionizer_Ionization_penalty>
0.00148639

> <r_ionizer_Ionization_penalty_charging>
0.00148639

> <r_ionizer_Ionization_penalty_neutral>
0

$$$$
ZINC001258440034
                    3D
 Structure written by MMmdl.
 43 44  0  0  1  0            999 V2000
   -4.7456    0.6485   -0.0401 C   0  0  0  0  0  0
   -3.3918    0.9533    0.5794 C   0  0  0  0  0  0
   -2.2019    0.7109   -0.3578 C   0  0  0  0  0  0
   -2.0956   -0.7405   -0.8302 C   0  0  0  0  0  0
   -0.7308   -1.1786   -1.3964 C   0  0  0  0  0  0
    0.4662   -1.2746   -0.4048 C   0  0  2  0  0  0
    0.0907   -2.0130    0.9045 C   0  0  0  0  0  0
   -0.3683   -3.4511    0.6680 C   0  0  0  0  0  0
    2.2365    0.2058   -1.1865 C   0  0  0  0  0  0
    2.8474    1.5770   -1.1651 C   0  0  2  0  0  0
    3.9860    1.8776   -0.2129 C   0  0  0  0  0  0
    2.6297    2.4969    0.0074 C   0  0  2  0  0  0
    1.7090    2.0503    1.0981 C   0  0  1  0  0  0
    0.5322    2.7219    0.9255 F   0  0  0  0  0  0
    1.4160    0.5341    1.0756 C   0  0  0  0  0  0
   -4.9262    1.2740   -0.9190 H   0  0  0  0  0  0
   -4.8269   -0.4009   -0.3383 H   0  0  0  0  0  0
   -5.5443    0.8435    0.6850 H   0  0  0  0  0  0
   -3.3816    2.0011    0.9025 H   0  0  0  0  0  0
   -3.2697    0.3483    1.4861 H   0  0  0  0  0  0
   -2.2751    1.3758   -1.2263 H   0  0  0  0  0  0
   -1.3062    1.0062    0.1869 H   0  0  0  0  0  0
   -2.3888   -1.4151   -0.0196 H   0  0  0  0  0  0
   -2.8387   -0.8948   -1.6228 H   0  0  0  0  0  0
   -0.8697   -2.1762   -1.8400 H   0  0  0  0  0  0
   -0.4686   -0.5294   -2.2433 H   0  0  0  0  0  0
    1.2028   -1.9336   -0.8863 H   0  0  0  0  0  0
    0.9640   -2.0603    1.5655 H   0  0  0  0  0  0
   -0.6950   -1.4775    1.4493 H   0  0  0  0  0  0
   -1.2900   -3.4992    0.0815 H   0  0  0  0  0  0
    0.3972   -4.0257    0.1379 H   0  0  0  0  0  0
   -0.5610   -3.9464    1.6244 H   0  0  0  0  0  0
    3.0127   -0.5267   -0.9302 H   0  0  0  0  0  0
    1.9228   -0.0145   -2.2144 H   0  0  0  0  0  0
    2.8844    2.0202   -2.1527 H   0  0  0  0  0  0
    4.7907    2.5110   -0.5770 H   0  0  0  0  0  0
    4.3191    1.0986    0.4619 H   0  0  0  0  0  0
    2.5166    3.5560   -0.1918 H   0  0  0  0  0  0
    2.0953    2.3477    2.0766 H   0  0  0  0  0  0
    0.5706    0.3781    1.7558 H   0  0  0  0  0  0
    2.2782   -0.0217    1.4687 H   0  0  0  0  0  0
    1.0465    0.1209   -0.3247 N   0  3  2  0  0  0
    0.3390    0.7786   -0.6729 H   0  0  0  0  0  0
  1  2  1  0  0  0
  1 16  1  0  0  0
  1 17  1  0  0  0
  1 18  1  0  0  0
  2  3  1  0  0  0
  2 19  1  0  0  0
  2 20  1  0  0  0
  3  4  1  0  0  0
  3 21  1  0  0  0
  3 22  1  0  0  0
  4  5  1  0  0  0
  4 23  1  0  0  0
  4 24  1  0  0  0
  5  6  1  0  0  0
  5 25  1  0  0  0
  5 26  1  0  0  0
  6  7  1  0  0  0
  6 27  1  0  0  0
  6 42  1  0  0  0
  7  8  1  0  0  0
  7 28  1  0  0  0
  7 29  1  0  0  0
  8 30  1  0  0  0
  8 31  1  0  0  0
  8 32  1  0  0  0
  9 10  1  0  0  0
  9 33  1  0  0  0
  9 34  1  0  0  0
  9 42  1  0  0  0
 10 11  1  0  0  0
 10 12  1  0  0  0
 10 35  1  0  0  0
 11 12  1  0  0  0
 11 36  1  0  0  0
 11 37  1  0  0  0
 12 13  1  0  0  0
 12 38  1  0  0  0
 13 14  1  0  0  0
 13 15  1  0  0  0
 13 39  1  0  0  0
 15 40  1  0  0  0
 15 41  1  0  0  0
 15 42  1  0  0  0
 42 43  1  0  0  0
M  CHG  1  42   1
M  END
> <energy>
73.2313

> <chiral flag>
0

> <version>
0

> <i_ionizer_Ion_state_n>
1

> <i_ionizer_Tot_Q>
1

> <s_ionizer_Ion_centers>
42

> <s_ionizer_Ion_types>
N5

> <s_ionizer_Ion_ctrs_in>
9

> <r_ionizer_Ionization_penalty>
0.00148639

> <r_ionizer_Ionization_penalty_charging>
0.00148639

> <r_ionizer_Ionization_penalty_neutral>
0

$$$$
ZINC001258440199
                    3D
 Structure written by MMmdl.
 43 44  0  0  1  0            999 V2000
   -5.5112    0.6993   -1.2752 C   0  0  0  0  0  0
   -4.5660    0.4514   -0.1099 C   0  0  0  0  0  0
   -3.1129    0.3825   -0.5762 C   0  0  0  0  0  0
   -2.1786    0.0319    0.5846 C   0  0  0  0  0  0
   -0.7176    0.0515    0.1274 C   0  0  0  0  0  0
    0.2813   -0.3182    1.2490 C   0  0  1  0  0  0
    0.1006   -1.7573    1.7984 C   0  0  0  0  0  0
    0.1151   -2.8900    0.7837 C   0  0  0  0  0  0
    2.0669    1.3624    1.1751 C   0  0  0  0  0  0
    3.4620    1.4585    0.5744 C   0  0  0  0  0  0
    3.3595    0.5486   -0.6092 C   0  0  0  0  0  0
    3.6723    1.0705   -1.9978 C   0  0  0  0  0  0
    4.6084    0.0998   -1.3404 C   0  0  0  0  0  0
    2.1797   -0.3794   -0.4089 C   0  0  0  0  0  0
   -6.5437    0.7585   -0.9182 H   0  0  0  0  0  0
   -5.2722    1.6367   -1.7857 H   0  0  0  0  0  0
   -5.4496   -0.1157   -2.0041 H   0  0  0  0  0  0
   -4.8482   -0.4834    0.3900 H   0  0  0  0  0  0
   -4.6772    1.2581    0.6241 H   0  0  0  0  0  0
   -3.0140   -0.3747   -1.3645 H   0  0  0  0  0  0
   -2.8203    1.3445   -1.0152 H   0  0  0  0  0  0
   -2.3186    0.7514    1.4013 H   0  0  0  0  0  0
   -2.4501   -0.9569    0.9702 H   0  0  0  0  0  0
   -0.4955    1.0593   -0.2440 H   0  0  0  0  0  0
   -0.6070   -0.6279   -0.7242 H   0  0  0  0  0  0
    0.0288    0.3190    2.1097 H   0  0  0  0  0  0
    0.8698   -1.9527    2.5562 H   0  0  0  0  0  0
   -0.8501   -1.8057    2.3449 H   0  0  0  0  0  0
    1.0743   -2.9705    0.2706 H   0  0  0  0  0  0
   -0.0591   -3.8410    1.2979 H   0  0  0  0  0  0
   -0.6733   -2.7760    0.0340 H   0  0  0  0  0  0
    2.0774    1.6159    2.2406 H   0  0  0  0  0  0
    1.3917    2.0532    0.6544 H   0  0  0  0  0  0
    4.2155    1.0776    1.2746 H   0  0  0  0  0  0
    3.7191    2.4902    0.3152 H   0  0  0  0  0  0
    4.0010    2.0977   -2.1105 H   0  0  0  0  0  0
    3.0817    0.7117   -2.8343 H   0  0  0  0  0  0
    4.6471   -0.9102   -1.7330 H   0  0  0  0  0  0
    5.5700    0.4760   -1.0058 H   0  0  0  0  0  0
    2.4948   -1.4245   -0.4562 H   0  0  0  0  0  0
    1.4504   -0.1815   -1.1982 H   0  0  0  0  0  0
    1.7559   -0.0453    0.9724 N   0  3  2  0  0  0
    2.3078   -0.6103    1.6285 H   0  0  0  0  0  0
  1  2  1  0  0  0
  1 15  1  0  0  0
  1 16  1  0  0  0
  1 17  1  0  0  0
  2  3  1  0  0  0
  2 18  1  0  0  0
  2 19  1  0  0  0
  3  4  1  0  0  0
  3 20  1  0  0  0
  3 21  1  0  0  0
  4  5  1  0  0  0
  4 22  1  0  0  0
  4 23  1  0  0  0
  5  6  1  0  0  0
  5 24  1  0  0  0
  5 25  1  0  0  0
  6  7  1  0  0  0
  6 26  1  0  0  0
  6 42  1  0  0  0
  7  8  1  0  0  0
  7 27  1  0  0  0
  7 28  1  0  0  0
  8 29  1  0  0  0
  8 30  1  0  0  0
  8 31  1  0  0  0
  9 10  1  0  0  0
  9 32  1  0  0  0
  9 33  1  0  0  0
  9 42  1  0  0  0
 10 11  1  0  0  0
 10 34  1  0  0  0
 10 35  1  0  0  0
 11 12  1  0  0  0
 11 13  1  0  0  0
 11 14  1  0  0  0
 12 13  1  0  0  0
 12 36  1  0  0  0
 12 37  1  0  0  0
 13 38  1  0  0  0
 13 39  1  0  0  0
 14 40  1  0  0  0
 14 41  1  0  0  0
 14 42  1  0  0  0
 42 43  1  0  0  0
M  CHG  1  42   1
M  END
> <energy>
38.0497

> <chiral flag>
0

> <version>
0

> <i_ionizer_Ion_state_n>
1

> <i_ionizer_Tot_Q>
1

> <s_ionizer_Ion_centers>
42

> <s_ionizer_Ion_types>
N5

> <s_ionizer_Ion_ctrs_in>
9

> <r_ionizer_Ionization_penalty>
0.00148639

> <r_ionizer_Ionization_penalty_charging>
0.00148639

> <r_ionizer_Ionization_penalty_neutral>
0

$$$$
ZINC001258440200
                    3D
 Structure written by MMmdl.
 43 44  0  0  1  0            999 V2000
   -4.3704    0.9063    0.6098 C   0  0  0  0  0  0
   -3.6728    0.0592   -0.4424 C   0  0  0  0  0  0
   -2.4118   -0.5982    0.1181 C   0  0  0  0  0  0
   -1.7693   -1.5381   -0.9074 C   0  0  0  0  0  0
   -0.4718   -2.1936   -0.4037 C   0  0  0  0  0  0
    0.8308   -1.4783   -0.8587 C   0  0  2  0  0  0
    2.0421   -2.3271   -0.4044 C   0  0  0  0  0  0
    3.3910   -1.8398   -0.9125 C   0  0  0  0  0  0
    1.4046    0.8934   -1.3216 C   0  0  0  0  0  0
    1.1839    2.1942   -0.5564 C   0  0  0  0  0  0
    1.2056    1.7483    0.8815 C   0  0  0  0  0  0
    1.9497    2.5502    1.9267 C   0  0  0  0  0  0
    0.4502    2.5461    1.9214 C   0  0  0  0  0  0
    1.2006    0.2354    0.9305 C   0  0  0  0  0  0
   -4.7010    0.2874    1.4504 H   0  0  0  0  0  0
   -5.2516    1.3937    0.1815 H   0  0  0  0  0  0
   -3.7029    1.6830    0.9972 H   0  0  0  0  0  0
   -3.4085    0.6902   -1.2987 H   0  0  0  0  0  0
   -4.3665   -0.7071   -0.8060 H   0  0  0  0  0  0
   -1.7118    0.1853    0.4232 H   0  0  0  0  0  0
   -2.6626   -1.1673    1.0212 H   0  0  0  0  0  0
   -1.5921   -1.0120   -1.8526 H   0  0  0  0  0  0
   -2.4899   -2.3363   -1.1266 H   0  0  0  0  0  0
   -0.4941   -2.3026    0.6879 H   0  0  0  0  0  0
   -0.4466   -3.2131   -0.8121 H   0  0  0  0  0  0
    0.8131   -1.5005   -1.9578 H   0  0  0  0  0  0
    2.0706   -2.4076    0.6888 H   0  0  0  0  0  0
    1.9047   -3.3516   -0.7741 H   0  0  0  0  0  0
    3.3766   -1.6978   -1.9980 H   0  0  0  0  0  0
    4.1670   -2.5760   -0.6768 H   0  0  0  0  0  0
    3.6853   -0.8985   -0.4414 H   0  0  0  0  0  0
    0.9249    0.9282   -2.3054 H   0  0  0  0  0  0
    2.4757    0.7160   -1.4598 H   0  0  0  0  0  0
    0.2055    2.6222   -0.8043 H   0  0  0  0  0  0
    1.9621    2.9285   -0.7868 H   0  0  0  0  0  0
    2.4565    3.4586    1.6178 H   0  0  0  0  0  0
    2.4549    2.0165    2.7248 H   0  0  0  0  0  0
   -0.0644    3.4466    1.6040 H   0  0  0  0  0  0
   -0.0635    2.0074    2.7104 H   0  0  0  0  0  0
    2.2096   -0.1138    1.1706 H   0  0  0  0  0  0
    0.4948   -0.1529    1.6713 H   0  0  0  0  0  0
    0.7020   -0.0261   -0.4267 N   0  3  2  0  0  0
   -0.2980    0.2056   -0.4479 H   0  0  0  0  0  0
  1  2  1  0  0  0
  1 15  1  0  0  0
  1 16  1  0  0  0
  1 17  1  0  0  0
  2  3  1  0  0  0
  2 18  1  0  0  0
  2 19  1  0  0  0
  3  4  1  0  0  0
  3 20  1  0  0  0
  3 21  1  0  0  0
  4  5  1  0  0  0
  4 22  1  0  0  0
  4 23  1  0  0  0
  5  6  1  0  0  0
  5 24  1  0  0  0
  5 25  1  0  0  0
  6  7  1  0  0  0
  6 26  1  0  0  0
  6 42  1  0  0  0
  7  8  1  0  0  0
  7 27  1  0  0  0
  7 28  1  0  0  0
  8 29  1  0  0  0
  8 30  1  0  0  0
  8 31  1  0  0  0
  9 10  1  0  0  0
  9 32  1  0  0  0
  9 33  1  0  0  0
  9 42  1  0  0  0
 10 11  1  0  0  0
 10 34  1  0  0  0
 10 35  1  0  0  0
 11 12  1  0  0  0
 11 13  1  0  0  0
 11 14  1  0  0  0
 12 13  1  0  0  0
 12 36  1  0  0  0
 12 37  1  0  0  0
 13 38  1  0  0  0
 13 39  1  0  0  0
 14 40  1  0  0  0
 14 41  1  0  0  0
 14 42  1  0  0  0
 42 43  1  0  0  0
M  CHG  1  42   1
M  END
> <energy>
38.4731

> <chiral flag>
0

> <version>
0

> <i_ionizer_Ion_state_n>
1

> <i_ionizer_Tot_Q>
1

> <s_ionizer_Ion_centers>
42

> <s_ionizer_Ion_types>
N5

> <s_ionizer_Ion_ctrs_in>
9

> <r_ionizer_Ionization_penalty>
0.00148639

> <r_ionizer_Ionization_penalty_charging>
0.00148639

> <r_ionizer_Ionization_penalty_neutral>
0

$$$$
ZINC001258440211
                    3D
 Structure written by MMmdl.
 43 44  0  0  1  0            999 V2000
   -4.0316   -0.0125    0.8808 C   0  0  0  0  0  0
   -2.6491    0.5823    0.6607 C   0  0  0  0  0  0
   -2.6561    1.6404   -0.4424 C   0  0  0  0  0  0
   -1.3155    2.3654   -0.6321 C   0  0  0  0  0  0
   -0.1599    1.4464   -1.0567 C   0  0  0  0  0  0
    0.7098    0.9454    0.1303 C   0  0  2  0  0  0
    2.0273    1.7494    0.2587 C   0  0  0  0  0  0
    1.8196    3.2205    0.5992 C   0  0  0  0  0  0
    1.7508   -0.9997   -1.0807 C   0  0  0  0  0  0
    1.9838   -2.4731   -0.7530 C   0  0  1  0  0  0
    1.5792   -2.6354    0.7213 C   0  0  2  0  0  0
    0.3476   -3.4573    0.2793 C   0  0  0  0  0  0
    0.8987   -3.4945   -1.1578 C   0  0  0  0  0  0
    0.0396   -3.1046   -2.1267 F   0  0  0  0  0  0
    1.3795   -4.7008   -1.5435 F   0  0  0  0  0  0
    1.3176   -1.2107    1.2002 C   0  0  0  0  0  0
   -4.7584    0.7617    1.1453 H   0  0  0  0  0  0
   -4.0039   -0.7415    1.6966 H   0  0  0  0  0  0
   -4.3872   -0.5257   -0.0186 H   0  0  0  0  0  0
   -2.2936    1.0218    1.5999 H   0  0  0  0  0  0
   -1.9675   -0.2317    0.3956 H   0  0  0  0  0  0
   -3.4189    2.3951   -0.2124 H   0  0  0  0  0  0
   -2.9515    1.1765   -1.3919 H   0  0  0  0  0  0
   -1.0632    2.9277    0.2740 H   0  0  0  0  0  0
   -1.4611    3.1094   -1.4261 H   0  0  0  0  0  0
    0.4792    1.9855   -1.7672 H   0  0  0  0  0  0
   -0.5806    0.6079   -1.6268 H   0  0  0  0  0  0
    0.1419    1.0998    1.0572 H   0  0  0  0  0  0
    2.6550    1.3175    1.0449 H   0  0  0  0  0  0
    2.6031    1.6913   -0.6714 H   0  0  0  0  0  0
    1.2718    3.3342    1.5399 H   0  0  0  0  0  0
    1.2728    3.7448   -0.1893 H   0  0  0  0  0  0
    2.7894    3.7166    0.7119 H   0  0  0  0  0  0
    1.2927   -0.8756   -2.0676 H   0  0  0  0  0  0
    2.7219   -0.4929   -1.0887 H   0  0  0  0  0  0
    2.9994   -2.8075   -0.9917 H   0  0  0  0  0  0
    2.2853   -3.2033    1.3367 H   0  0  0  0  0  0
    0.2646   -4.4411    0.7515 H   0  0  0  0  0  0
   -0.6166   -2.9460    0.3729 H   0  0  0  0  0  0
    0.5454   -1.1900    1.9769 H   0  0  0  0  0  0
    2.2408   -0.7920    1.6160 H   0  0  0  0  0  0
    0.8363   -0.5734   -0.0144 N   0  3  1  0  0  0
   -0.1001   -0.9367   -0.2273 H   0  0  0  0  0  0
  1  2  1  0  0  0
  1 17  1  0  0  0
  1 18  1  0  0  0
  1 19  1  0  0  0
  2  3  1  0  0  0
  2 20  1  0  0  0
  2 21  1  0  0  0
  3  4  1  0  0  0
  3 22  1  0  0  0
  3 23  1  0  0  0
  4  5  1  0  0  0
  4 24  1  0  0  0
  4 25  1  0  0  0
  5  6  1  0  0  0
  5 26  1  0  0  0
  5 27  1  0  0  0
  6  7  1  0  0  0
  6 28  1  0  0  0
  6 42  1  0  0  0
  7  8  1  0  0  0
  7 29  1  0  0  0
  7 30  1  0  0  0
  8 31  1  0  0  0
  8 32  1  0  0  0
  8 33  1  0  0  0
  9 10  1  0  0  0
  9 34  1  0  0  0
  9 35  1  0  0  0
  9 42  1  0  0  0
 10 11  1  0  0  0
 10 13  1  0  0  0
 10 36  1  0  0  0
 11 12  1  0  0  0
 11 16  1  0  0  0
 11 37  1  0  0  0
 12 13  1  0  0  0
 12 38  1  0  0  0
 12 39  1  0  0  0
 13 14  1  0  0  0
 13 15  1  0  0  0
 16 40  1  0  0  0
 16 41  1  0  0  0
 16 42  1  0  0  0
 42 43  1  0  0  0
M  CHG  1  42   1
M  END
> <energy>
24.9836

> <chiral flag>
0

> <version>
0

> <i_ionizer_Ion_state_n>
1

> <i_ionizer_Tot_Q>
1

> <s_ionizer_Ion_centers>
42

> <s_ionizer_Ion_types>
N5

> <s_ionizer_Ion_ctrs_in>
9

> <r_ionizer_Ionization_penalty>
0.00148639

> <r_ionizer_Ionization_penalty_charging>
0.00148639

> <r_ionizer_Ionization_penalty_neutral>
0

$$$$
ZINC001258440212
                    3D
 Structure written by MMmdl.
 43 44  0  0  1  0            999 V2000
   -5.4107   -0.5535    0.5316 C   0  0  0  0  0  0
   -3.9151   -0.4436    0.7995 C   0  0  0  0  0  0
   -3.2940    0.6794   -0.0287 C   0  0  0  0  0  0
   -1.7798    0.8498    0.1795 C   0  0  0  0  0  0
   -0.9626   -0.3865   -0.2378 C   0  0  0  0  0  0
    0.4446   -0.0911   -0.8493 C   0  0  1  0  0  0
    0.2540    0.5311   -2.2684 C   0  0  0  0  0  0
   -0.3591   -0.4289   -3.2868 C   0  0  0  0  0  0
    1.4657    0.3571    1.3880 C   0  0  0  0  0  0
    2.5681   -0.6845    1.4173 C   0  0  1  0  0  0
    3.4971   -0.2723    0.2745 C   0  0  2  0  0  0
    4.5355    0.1966    1.3165 C   0  0  0  0  0  0
    3.7305   -0.5205    2.4182 C   0  0  0  0  0  0
    3.4658    0.2202    3.5215 F   0  0  0  0  0  0
    4.2684   -1.6808    2.8559 F   0  0  0  0  0  0
    2.7265    0.7972   -0.4962 C   0  0  0  0  0  0
   -5.8409   -1.3819    1.1061 H   0  0  0  0  0  0
   -5.6058   -0.7440   -0.5293 H   0  0  0  0  0  0
   -5.9311    0.3669    0.8161 H   0  0  0  0  0  0
   -3.7516   -0.2539    1.8663 H   0  0  0  0  0  0
   -3.4435   -1.4039    0.5607 H   0  0  0  0  0  0
   -3.4892    0.5071   -1.0943 H   0  0  0  0  0  0
   -3.7824    1.6276    0.2267 H   0  0  0  0  0  0
   -1.5793    1.0777    1.2349 H   0  0  0  0  0  0
   -1.4667    1.7353   -0.3871 H   0  0  0  0  0  0
   -0.8632   -1.0556    0.6254 H   0  0  0  0  0  0
   -1.5387   -0.9742   -0.9590 H   0  0  0  0  0  0
    0.9396   -1.0634   -0.9728 H   0  0  0  0  0  0
    1.2077    0.8544   -2.6908 H   0  0  0  0  0  0
   -0.3594    1.4372   -2.2143 H   0  0  0  0  0  0
   -1.3848   -0.7080   -3.0350 H   0  0  0  0  0  0
   -0.3849    0.0474   -4.2744 H   0  0  0  0  0  0
    0.2362   -1.3433   -3.3652 H   0  0  0  0  0  0
    1.7581    1.2448    1.9655 H   0  0  0  0  0  0
    0.5467   -0.0063    1.8528 H   0  0  0  0  0  0
    2.1937   -1.7107    1.3339 H   0  0  0  0  0  0
    3.8394   -1.1154   -0.3417 H   0  0  0  0  0  0
    4.6090    1.2782    1.4615 H   0  0  0  0  0  0
    5.5447   -0.1989    1.1622 H   0  0  0  0  0  0
    2.8486    0.6380   -1.5691 H   0  0  0  0  0  0
    3.1432    1.7925   -0.2963 H   0  0  0  0  0  0
    1.3543    0.8070    0.0001 N   0  3  1  0  0  0
    0.9792    1.7625   -0.0242 H   0  0  0  0  0  0
  1  2  1  0  0  0
  1 17  1  0  0  0
  1 18  1  0  0  0
  1 19  1  0  0  0
  2  3  1  0  0  0
  2 20  1  0  0  0
  2 21  1  0  0  0
  3  4  1  0  0  0
  3 22  1  0  0  0
  3 23  1  0  0  0
  4  5  1  0  0  0
  4 24  1  0  0  0
  4 25  1  0  0  0
  5  6  1  0  0  0
  5 26  1  0  0  0
  5 27  1  0  0  0
  6  7  1  0  0  0
  6 28  1  0  0  0
  6 42  1  0  0  0
  7  8  1  0  0  0
  7 29  1  0  0  0
  7 30  1  0  0  0
  8 31  1  0  0  0
  8 32  1  0  0  0
  8 33  1  0  0  0
  9 10  1  0  0  0
  9 34  1  0  0  0
  9 35  1  0  0  0
  9 42  1  0  0  0
 10 11  1  0  0  0
 10 13  1  0  0  0
 10 36  1  0  0  0
 11 12  1  0  0  0
 11 16  1  0  0  0
 11 37  1  0  0  0
 12 13  1  0  0  0
 12 38  1  0  0  0
 12 39  1  0  0  0
 13 14  1  0  0  0
 13 15  1  0  0  0
 16 40  1  0  0  0
 16 41  1  0  0  0
 16 42  1  0  0  0
 42 43  1  0  0  0
M  CHG  1  42   1
M  END
> <energy>
26.6066

> <chiral flag>
0

> <version>
0

> <i_ionizer_Ion_state_n>
1

> <i_ionizer_Tot_Q>
1

> <s_ionizer_Ion_centers>
42

> <s_ionizer_Ion_types>
N5

> <s_ionizer_Ion_ctrs_in>
9

> <r_ionizer_Ionization_penalty>
0.00148639

> <r_ionizer_Ionization_penalty_charging>
0.00148639

> <r_ionizer_Ionization_penalty_neutral>
0

$$$$
ZINC001258440219
                    3D
 Structure written by MMmdl.
 47 48  0  0  1  0            999 V2000
   -4.5113   -1.1422    1.3478 C   0  0  0  0  0  0
   -4.0784   -1.5655   -0.0475 C   0  0  0  0  0  0
   -3.4288   -0.4422   -0.8602 C   0  0  0  0  0  0
   -2.1510    0.1046   -0.2186 C   0  0  0  0  0  0
   -1.4231    1.0774   -1.1574 C   0  0  0  0  0  0
   -0.1753    1.7598   -0.5249 C   0  0  1  0  0  0
   -0.6546    2.7369    0.5844 C   0  0  0  0  0  0
    0.1722    4.0132    0.6919 C   0  0  0  0  0  0
    1.9969    1.3052    0.5948 C   0  0  0  0  0  0
    2.9776    0.1351    0.6507 C   0  0  0  0  0  0
    2.4379   -0.8879   -0.3594 C   0  0  2  0  0  0
    1.9690   -2.1788    0.3120 C   0  0  0  0  0  0
    3.2447   -2.9837    0.3622 C   0  0  0  0  0  0
    3.9065   -2.6050   -0.9457 C   0  0  0  0  0  0
    3.4904   -1.2673   -1.2624 O   0  0  0  0  0  0
    1.3188   -0.1273   -1.0775 C   0  0  0  0  0  0
   -3.6515   -0.8934    1.9768 H   0  0  0  0  0  0
   -5.1753   -0.2730    1.3081 H   0  0  0  0  0  0
   -5.0491   -1.9601    1.8383 H   0  0  0  0  0  0
   -4.9577   -1.9277   -0.5942 H   0  0  0  0  0  0
   -3.3858   -2.4115    0.0312 H   0  0  0  0  0  0
   -3.1977   -0.8323   -1.8591 H   0  0  0  0  0  0
   -4.1489    0.3738   -0.9974 H   0  0  0  0  0  0
   -2.4059    0.6158    0.7153 H   0  0  0  0  0  0
   -1.4893   -0.7312    0.0363 H   0  0  0  0  0  0
   -2.1242    1.8575   -1.4831 H   0  0  0  0  0  0
   -1.1347    0.5504   -2.0752 H   0  0  0  0  0  0
    0.2952    2.3520   -1.3208 H   0  0  0  0  0  0
   -0.6808    2.2327    1.5587 H   0  0  0  0  0  0
   -1.6875    3.0498    0.3835 H   0  0  0  0  0  0
    1.1949    3.8267    1.0238 H   0  0  0  0  0  0
   -0.2879    4.6918    1.4175 H   0  0  0  0  0  0
    0.2111    4.5328   -0.2705 H   0  0  0  0  0  0
    1.8061    1.6847    1.6029 H   0  0  0  0  0  0
    2.4315    2.1091   -0.0124 H   0  0  0  0  0  0
    3.9902    0.4717    0.4005 H   0  0  0  0  0  0
    3.0074   -0.2772    1.6659 H   0  0  0  0  0  0
    1.5111   -2.0323    1.2953 H   0  0  0  0  0  0
    1.2427   -2.7038   -0.3221 H   0  0  0  0  0  0
    3.8646   -2.6591    1.2062 H   0  0  0  0  0  0
    3.0804   -4.0606    0.4591 H   0  0  0  0  0  0
    4.9981   -2.6482   -0.8914 H   0  0  0  0  0  0
    3.5737   -3.2565   -1.7603 H   0  0  0  0  0  0
    1.7234    0.4447   -1.9241 H   0  0  0  0  0  0
    0.5652   -0.8161   -1.4714 H   0  0  0  0  0  0
    0.8099    0.7139   -0.0106 N   0  3  2  0  0  0
    0.3251    0.1337    0.6840 H   0  0  0  0  0  0
  1  2  1  0  0  0
  1 17  1  0  0  0
  1 18  1  0  0  0
  1 19  1  0  0  0
  2  3  1  0  0  0
  2 20  1  0  0  0
  2 21  1  0  0  0
  3  4  1  0  0  0
  3 22  1  0  0  0
  3 23  1  0  0  0
  4  5  1  0  0  0
  4 24  1  0  0  0
  4 25  1  0  0  0
  5  6  1  0  0  0
  5 26  1  0  0  0
  5 27  1  0  0  0
  6  7  1  0  0  0
  6 28  1  0  0  0
  6 46  1  0  0  0
  7  8  1  0  0  0
  7 29  1  0  0  0
  7 30  1  0  0  0
  8 31  1  0  0  0
  8 32  1  0  0  0
  8 33  1  0  0  0
  9 10  1  0  0  0
  9 34  1  0  0  0
  9 35  1  0  0  0
  9 46  1  0  0  0
 10 11  1  0  0  0
 10 36  1  0  0  0
 10 37  1  0  0  0
 11 12  1  0  0  0
 11 15  1  0  0  0
 11 16  1  0  0  0
 12 13  1  0  0  0
 12 38  1  0  0  0
 12 39  1  0  0  0
 13 14  1  0  0  0
 13 40  1  0  0  0
 13 41  1  0  0  0
 14 15  1  0  0  0
 14 42  1  0  0  0
 14 43  1  0  0  0
 16 44  1  0  0  0
 16 45  1  0  0  0
 16 46  1  0  0  0
 46 47  1  0  0  0
M  CHG  1  46   1
M  END
> <energy>
43.9348

> <chiral flag>
0

> <version>
0

> <i_ionizer_Ion_state_n>
1

> <i_ionizer_Tot_Q>
1

> <s_ionizer_Ion_centers>
46

> <s_ionizer_Ion_types>
N5

> <s_ionizer_Ion_ctrs_in>
9

> <r_ionizer_Ionization_penalty>
0.00148639

> <r_ionizer_Ionization_penalty_charging>
0.00148639

> <r_ionizer_Ionization_penalty_neutral>
0

$$$$
ZINC001258440220
                    3D
 Structure written by MMmdl.
 47 48  0  0  1  0            999 V2000
   -2.3824   -2.8023   -0.0124 C   0  0  0  0  0  0
   -2.7416   -1.3824   -0.4305 C   0  0  0  0  0  0
   -3.1781   -0.4986    0.7435 C   0  0  0  0  0  0
   -2.0540   -0.1339    1.7163 C   0  0  0  0  0  0
   -1.5076    1.3023    1.6324 C   0  0  0  0  0  0
   -0.7849    1.7532    0.3298 C   0  0  2  0  0  0
   -1.8349    2.1481   -0.7448 C   0  0  0  0  0  0
   -1.4206    3.2980   -1.6564 C   0  0  0  0  0  0
    0.9018    1.0492   -1.3609 C   0  0  0  0  0  0
    2.1084    0.1104   -1.3849 C   0  0  0  0  0  0
    2.2364   -0.4123    0.0501 C   0  0  2  0  0  0
    3.6588   -0.4291    0.5911 C   0  0  0  0  0  0
    4.1852   -1.7432    0.0661 C   0  0  0  0  0  0
    2.9704   -2.6366    0.1844 C   0  0  0  0  0  0
    1.8142   -1.7964    0.0682 O   0  0  0  0  0  0
    1.2684    0.4631    0.8508 C   0  0  0  0  0  0
   -1.4838   -2.8240    0.6110 H   0  0  0  0  0  0
   -3.2017   -3.2682    0.5437 H   0  0  0  0  0  0
   -2.1854   -3.4156   -0.8976 H   0  0  0  0  0  0
   -3.5689   -1.4353   -1.1487 H   0  0  0  0  0  0
   -1.8944   -0.9405   -0.9611 H   0  0  0  0  0  0
   -3.9544   -1.0405    1.2994 H   0  0  0  0  0  0
   -3.6682    0.4028    0.3650 H   0  0  0  0  0  0
   -1.2333   -0.8521    1.6512 H   0  0  0  0  0  0
   -2.4556   -0.2476    2.7326 H   0  0  0  0  0  0
   -2.3242    2.0016    1.8567 H   0  0  0  0  0  0
   -0.8031    1.4247    2.4677 H   0  0  0  0  0  0
   -0.2434    2.6738    0.5918 H   0  0  0  0  0  0
   -2.1040    1.2879   -1.3648 H   0  0  0  0  0  0
   -2.7597    2.4700   -0.2520 H   0  0  0  0  0  0
   -2.2631    3.5800   -2.2973 H   0  0  0  0  0  0
   -1.1394    4.1794   -1.0715 H   0  0  0  0  0  0
   -0.5919    3.0380   -2.3170 H   0  0  0  0  0  0
    0.2752    0.8814   -2.2423 H   0  0  0  0  0  0
    1.2638    2.0847   -1.3731 H   0  0  0  0  0  0
    1.9443   -0.7051   -2.0980 H   0  0  0  0  0  0
    2.9937    0.6727   -1.7014 H   0  0  0  0  0  0
    3.6496   -0.4580    1.6893 H   0  0  0  0  0  0
    4.2610    0.4294    0.2807 H   0  0  0  0  0  0
    4.4775   -1.6407   -0.9858 H   0  0  0  0  0  0
    5.0467   -2.1238    0.6203 H   0  0  0  0  0  0
    2.9427   -3.4088   -0.5886 H   0  0  0  0  0  0
    2.9299   -3.1248    1.1637 H   0  0  0  0  0  0
    0.8976   -0.0723    1.7288 H   0  0  0  0  0  0
    1.7577    1.3910    1.1723 H   0  0  0  0  0  0
    0.2115    0.6900   -0.1249 N   0  3  1  0  0  0
   -0.3071   -0.1840   -0.2709 H   0  0  0  0  0  0
  1  2  1  0  0  0
  1 17  1  0  0  0
  1 18  1  0  0  0
  1 19  1  0  0  0
  2  3  1  0  0  0
  2 20  1  0  0  0
  2 21  1  0  0  0
  3  4  1  0  0  0
  3 22  1  0  0  0
  3 23  1  0  0  0
  4  5  1  0  0  0
  4 24  1  0  0  0
  4 25  1  0  0  0
  5  6  1  0  0  0
  5 26  1  0  0  0
  5 27  1  0  0  0
  6  7  1  0  0  0
  6 28  1  0  0  0
  6 46  1  0  0  0
  7  8  1  0  0  0
  7 29  1  0  0  0
  7 30  1  0  0  0
  8 31  1  0  0  0
  8 32  1  0  0  0
  8 33  1  0  0  0
  9 10  1  0  0  0
  9 34  1  0  0  0
  9 35  1  0  0  0
  9 46  1  0  0  0
 10 11  1  0  0  0
 10 36  1  0  0  0
 10 37  1  0  0  0
 11 12  1  0  0  0
 11 15  1  0  0  0
 11 16  1  0  0  0
 12 13  1  0  0  0
 12 38  1  0  0  0
 12 39  1  0  0  0
 13 14  1  0  0  0
 13 40  1  0  0  0
 13 41  1  0  0  0
 14 15  1  0  0  0
 14 42  1  0  0  0
 14 43  1  0  0  0
 16 44  1  0  0  0
 16 45  1  0  0  0
 16 46  1  0  0  0
 46 47  1  0  0  0
M  CHG  1  46   1
M  END
> <energy>
52.6482

> <chiral flag>
0

> <version>
0

> <i_ionizer_Ion_state_n>
1

> <i_ionizer_Tot_Q>
1

> <s_ionizer_Ion_centers>
46

> <s_ionizer_Ion_types>
N5

> <s_ionizer_Ion_ctrs_in>
9

> <r_ionizer_Ionization_penalty>
0.00148639

> <r_ionizer_Ionization_penalty_charging>
0.00148639

> <r_ionizer_Ionization_penalty_neutral>
0

$$$$
ZINC001258440221
                    3D
 Structure written by MMmdl.
 47 48  0  0  1  0            999 V2000
   -4.4956    0.1567   -2.4023 C   0  0  0  0  0  0
   -4.8924    0.5149   -0.9803 C   0  0  0  0  0  0
   -3.9571   -0.0925    0.0647 C   0  0  0  0  0  0
   -2.5336    0.4835    0.0358 C   0  0  0  0  0  0
   -1.7151    0.0252    1.2505 C   0  0  0  0  0  0
   -0.3553   -0.6792    0.9896 C   0  0  1  0  0  0
   -0.5459   -2.1639    0.5717 C   0  0  0  0  0  0
   -0.9880   -2.4377   -0.8585 C   0  0  0  0  0  0
    0.6697    1.4859    0.3382 C   0  0  0  0  0  0
    2.0004    1.8690   -0.2913 C   0  0  0  0  0  0
    2.9028    0.7587    0.2014 C   0  0  1  0  0  0
    4.1975    0.5839   -0.5722 C   0  0  0  0  0  0
    5.1205    0.0107    0.4755 C   0  0  0  0  0  0
    4.6912    0.7600    1.7164 C   0  0  0  0  0  0
    3.3008    1.0657    1.5615 O   0  0  0  0  0  0
    1.9754   -0.4756    0.2118 C   0  0  0  0  0  0
   -5.2229    0.5652   -3.1143 H   0  0  0  0  0  0
   -4.4637   -0.9298   -2.5361 H   0  0  0  0  0  0
   -3.5139    0.5667   -2.6565 H   0  0  0  0  0  0
   -4.9313    1.6049   -0.8663 H   0  0  0  0  0  0
   -5.9095    0.1445   -0.7939 H   0  0  0  0  0  0
   -4.3942    0.0889    1.0542 H   0  0  0  0  0  0
   -3.9183   -1.1808   -0.0691 H   0  0  0  0  0  0
   -2.0315    0.2309   -0.9014 H   0  0  0  0  0  0
   -2.6010    1.5785    0.0624 H   0  0  0  0  0  0
   -2.3237   -0.6309    1.8869 H   0  0  0  0  0  0
   -1.5171    0.9112    1.8687 H   0  0  0  0  0  0
    0.1033   -0.7256    1.9891 H   0  0  0  0  0  0
    0.3974   -2.7001    0.7397 H   0  0  0  0  0  0
   -1.2655   -2.6338    1.2508 H   0  0  0  0  0  0
   -0.2778   -2.0391   -1.5889 H   0  0  0  0  0  0
   -1.9791   -2.0301   -1.0669 H   0  0  0  0  0  0
   -1.0467   -3.5204   -1.0174 H   0  0  0  0  0  0
    0.6750    1.7246    1.4105 H   0  0  0  0  0  0
   -0.1525    2.0293   -0.1344 H   0  0  0  0  0  0
    1.9290    1.8743   -1.3886 H   0  0  0  0  0  0
    2.3252    2.8578    0.0460 H   0  0  0  0  0  0
    4.1007   -0.0460   -1.4602 H   0  0  0  0  0  0
    4.5832    1.5614   -0.8927 H   0  0  0  0  0  0
    6.1781    0.1500    0.2446 H   0  0  0  0  0  0
    4.9372   -1.0649    0.5993 H   0  0  0  0  0  0
    4.8424    0.1808    2.6298 H   0  0  0  0  0  0
    5.2292    1.7090    1.8176 H   0  0  0  0  0  0
    2.1359   -1.0574    1.1245 H   0  0  0  0  0  0
    2.1547   -1.1235   -0.6522 H   0  0  0  0  0  0
    0.6089    0.0411    0.0610 N   0  3  1  0  0  0
    0.2951   -0.1036   -0.9058 H   0  0  0  0  0  0
  1  2  1  0  0  0
  1 17  1  0  0  0
  1 18  1  0  0  0
  1 19  1  0  0  0
  2  3  1  0  0  0
  2 20  1  0  0  0
  2 21  1  0  0  0
  3  4  1  0  0  0
  3 22  1  0  0  0
  3 23  1  0  0  0
  4  5  1  0  0  0
  4 24  1  0  0  0
  4 25  1  0  0  0
  5  6  1  0  0  0
  5 26  1  0  0  0
  5 27  1  0  0  0
  6  7  1  0  0  0
  6 28  1  0  0  0
  6 46  1  0  0  0
  7  8  1  0  0  0
  7 29  1  0  0  0
  7 30  1  0  0  0
  8 31  1  0  0  0
  8 32  1  0  0  0
  8 33  1  0  0  0
  9 10  1  0  0  0
  9 34  1  0  0  0
  9 35  1  0  0  0
  9 46  1  0  0  0
 10 11  1  0  0  0
 10 36  1  0  0  0
 10 37  1  0  0  0
 11 12  1  0  0  0
 11 15  1  0  0  0
 11 16  1  0  0  0
 12 13  1  0  0  0
 12 38  1  0  0  0
 12 39  1  0  0  0
 13 14  1  0  0  0
 13 40  1  0  0  0
 13 41  1  0  0  0
 14 15  1  0  0  0
 14 42  1  0  0  0
 14 43  1  0  0  0
 16 44  1  0  0  0
 16 45  1  0  0  0
 16 46  1  0  0  0
 46 47  1  0  0  0
M  CHG  1  46   1
M  END
> <energy>
47.6418

> <chiral flag>
0

> <version>
0

> <i_ionizer_Ion_state_n>
1

> <i_ionizer_Tot_Q>
1

> <s_ionizer_Ion_centers>
46

> <s_ionizer_Ion_types>
N5

> <s_ionizer_Ion_ctrs_in>
9

> <r_ionizer_Ionization_penalty>
0.00148639

> <r_ionizer_Ionization_penalty_charging>
0.00148639

> <r_ionizer_Ionization_penalty_neutral>
0

$$$$
ZINC001258440222
                    3D
 Structure written by MMmdl.
 47 48  0  0  1  0            999 V2000
   -2.9300   -3.0283    1.2115 C   0  0  0  0  0  0
   -2.7602   -2.9668   -0.2999 C   0  0  0  0  0  0
   -1.8181   -1.8434   -0.7381 C   0  0  0  0  0  0
   -2.4677   -0.4500   -0.7167 C   0  0  0  0  0  0
   -1.4257    0.6805   -0.8420 C   0  0  0  0  0  0
   -0.6568    0.9974    0.4740 C   0  0  2  0  0  0
   -1.6267    1.5646    1.5567 C   0  0  0  0  0  0
   -2.2393    2.9261    1.2482 C   0  0  0  0  0  0
    1.4544    1.7619    1.4412 C   0  0  0  0  0  0
    2.3637    0.5955    1.0520 C   0  0  0  0  0  0
    2.2858    0.5351   -0.4784 C   0  0  1  0  0  0
    3.6390    0.5487   -1.1804 C   0  0  0  0  0  0
    4.0050   -0.9174   -1.2009 C   0  0  0  0  0  0
    2.6628   -1.5532   -1.4753 C   0  0  0  0  0  0
    1.6735   -0.7207   -0.8579 O   0  0  0  0  0  0
    1.3711    1.7107   -0.8446 C   0  0  0  0  0  0
   -1.9572   -3.1049    1.7124 H   0  0  0  0  0  0
   -3.5190   -3.9088    1.4884 H   0  0  0  0  0  0
   -3.4470   -2.1441    1.5982 H   0  0  0  0  0  0
   -3.7395   -2.8620   -0.7811 H   0  0  0  0  0  0
   -2.3419   -3.9250   -0.6324 H   0  0  0  0  0  0
   -0.9209   -1.8663   -0.1127 H   0  0  0  0  0  0
   -1.4873   -2.0525   -1.7648 H   0  0  0  0  0  0
   -3.0928   -0.3141    0.1682 H   0  0  0  0  0  0
   -3.1422   -0.3856   -1.5797 H   0  0  0  0  0  0
   -0.7414    0.3615   -1.6337 H   0  0  0  0  0  0
   -1.9167    1.5859   -1.2127 H   0  0  0  0  0  0
   -0.2928    0.0391    0.8601 H   0  0  0  0  0  0
   -1.1130    1.6432    2.5212 H   0  0  0  0  0  0
   -2.4351    0.8535    1.7434 H   0  0  0  0  0  0
   -2.9031    3.2270    2.0690 H   0  0  0  0  0  0
   -1.4721    3.7001    1.1482 H   0  0  0  0  0  0
   -2.8404    2.9099    0.3348 H   0  0  0  0  0  0
    2.0540    2.6778    1.5247 H   0  0  0  0  0  0
    1.0032    1.6128    2.4230 H   0  0  0  0  0  0
    3.3776    0.7759    1.4223 H   0  0  0  0  0  0
    2.0001   -0.3359    1.5011 H   0  0  0  0  0  0
    3.5316    0.9055   -2.2137 H   0  0  0  0  0  0
    4.3898    1.1749   -0.6876 H   0  0  0  0  0  0
    4.7538   -1.1718   -1.9551 H   0  0  0  0  0  0
    4.3837   -1.2320   -0.2210 H   0  0  0  0  0  0
    2.4521   -1.5735   -2.5500 H   0  0  0  0  0  0
    2.5804   -2.5711   -1.0844 H   0  0  0  0  0  0
    1.9726    2.6215   -0.9764 H   0  0  0  0  0  0
    0.8397    1.5776   -1.7868 H   0  0  0  0  0  0
    0.5409    1.9528    0.3451 N   0  3  1  0  0  0
    0.1892    2.9174    0.3327 H   0  0  0  0  0  0
  1  2  1  0  0  0
  1 17  1  0  0  0
  1 18  1  0  0  0
  1 19  1  0  0  0
  2  3  1  0  0  0
  2 20  1  0  0  0
  2 21  1  0  0  0
  3  4  1  0  0  0
  3 22  1  0  0  0
  3 23  1  0  0  0
  4  5  1  0  0  0
  4 24  1  0  0  0
  4 25  1  0  0  0
  5  6  1  0  0  0
  5 26  1  0  0  0
  5 27  1  0  0  0
  6  7  1  0  0  0
  6 28  1  0  0  0
  6 46  1  0  0  0
  7  8  1  0  0  0
  7 29  1  0  0  0
  7 30  1  0  0  0
  8 31  1  0  0  0
  8 32  1  0  0  0
  8 33  1  0  0  0
  9 10  1  0  0  0
  9 34  1  0  0  0
  9 35  1  0  0  0
  9 46  1  0  0  0
 10 11  1  0  0  0
 10 36  1  0  0  0
 10 37  1  0  0  0
 11 12  1  0  0  0
 11 15  1  0  0  0
 11 16  1  0  0  0
 12 13  1  0  0  0
 12 38  1  0  0  0
 12 39  1  0  0  0
 13 14  1  0  0  0
 13 40  1  0  0  0
 13 41  1  0  0  0
 14 15  1  0  0  0
 14 42  1  0  0  0
 14 43  1  0  0  0
 16 44  1  0  0  0
 16 45  1  0  0  0
 16 46  1  0  0  0
 46 47  1  0  0  0
M  CHG  1  46   1
M  END
> <energy>
50.6446

> <chiral flag>
0

> <version>
0

> <i_ionizer_Ion_state_n>
1

> <i_ionizer_Tot_Q>
1

> <s_ionizer_Ion_centers>
46

> <s_ionizer_Ion_types>
N5

> <s_ionizer_Ion_ctrs_in>
9

> <r_ionizer_Ionization_penalty>
0.00148639

> <r_ionizer_Ionization_penalty_charging>
0.00148639

> <r_ionizer_Ionization_penalty_neutral>
0

$$$$
ZINC001258440320
                    3D
 Structure written by MMmdl.
 49 49  0  0  1  0            999 V2000
   -3.1970   -3.4774    0.1178 C   0  0  0  0  0  0
   -3.4897   -1.9966   -0.0770 C   0  0  0  0  0  0
   -2.2647   -1.2579   -0.6187 C   0  0  0  0  0  0
   -2.5843    0.1960   -0.9828 C   0  0  0  0  0  0
   -1.3333    0.9990   -1.3813 C   0  0  0  0  0  0
   -0.3919    1.4076   -0.1997 C   0  0  2  0  0  0
   -1.0218    2.6096    0.5745 C   0  0  0  0  0  0
   -0.4351    2.8320    1.9634 C   0  0  0  0  0  0
    1.0865    2.4502   -1.9129 C   0  0  0  0  0  0
    2.0619    0.7854   -0.4501 C   0  0  1  0  0  0
    2.6243    0.7533    0.9861 C   0  0  0  0  0  0
    2.1226   -0.4110    1.8296 C   0  0  0  0  0  0
    2.3079   -1.7642    1.1345 C   0  0  2  0  0  0
    3.3432   -2.4850    1.7943 O   0  0  0  0  0  0
    2.6440   -1.6599   -0.3603 C   0  0  0  0  0  0
    1.7519   -0.6131   -1.0177 C   0  0  0  0  0  0
   -2.9812   -3.9621   -0.8401 H   0  0  0  0  0  0
   -2.3350   -3.6247    0.7783 H   0  0  0  0  0  0
   -4.0560   -3.9845    0.5720 H   0  0  0  0  0  0
   -4.3362   -1.8851   -0.7635 H   0  0  0  0  0  0
   -3.7873   -1.5613    0.8833 H   0  0  0  0  0  0
   -1.8898   -1.7746   -1.5108 H   0  0  0  0  0  0
   -1.4712   -1.2979    0.1348 H   0  0  0  0  0  0
   -3.2634    0.1797   -1.8448 H   0  0  0  0  0  0
   -3.1329    0.6922   -0.1753 H   0  0  0  0  0  0
   -0.7857    0.4043   -2.1225 H   0  0  0  0  0  0
   -1.6713    1.9025   -1.8994 H   0  0  0  0  0  0
   -0.3435    0.5770    0.5098 H   0  0  0  0  0  0
   -0.9155    3.5308   -0.0121 H   0  0  0  0  0  0
   -2.0977    2.4524    0.6982 H   0  0  0  0  0  0
    0.6445    2.9887    1.9363 H   0  0  0  0  0  0
   -0.6519    1.9870    2.6226 H   0  0  0  0  0  0
   -0.8841    3.7195    2.4185 H   0  0  0  0  0  0
    0.3368    3.2380   -2.0289 H   0  0  0  0  0  0
    2.0587    2.9451   -2.0084 H   0  0  0  0  0  0
    0.9891    1.7480   -2.7487 H   0  0  0  0  0  0
    2.9199    1.1514   -1.0326 H   0  0  0  0  0  0
    2.4547    1.6986    1.5085 H   0  0  0  0  0  0
    3.7182    0.6694    0.9267 H   0  0  0  0  0  0
    1.0575   -0.2607    2.0455 H   0  0  0  0  0  0
    2.6344   -0.4056    2.8011 H   0  0  0  0  0  0
    1.3823   -2.3390    1.2584 H   0  0  0  0  0  0
    3.3673   -3.3816    1.4150 H   0  0  0  0  0  0
    2.5046   -2.6380   -0.8438 H   0  0  0  0  0  0
    3.7039   -1.4087   -0.5050 H   0  0  0  0  0  0
    1.9056   -0.6055   -2.1053 H   0  0  0  0  0  0
    0.7131   -0.9104   -0.8536 H   0  0  0  0  0  0
    1.0249    1.8768   -0.5576 N   0  3  2  0  0  0
    1.2770    2.6145    0.1105 H   0  0  0  0  0  0
  1  2  1  0  0  0
  1 17  1  0  0  0
  1 18  1  0  0  0
  1 19  1  0  0  0
  2  3  1  0  0  0
  2 20  1  0  0  0
  2 21  1  0  0  0
  3  4  1  0  0  0
  3 22  1  0  0  0
  3 23  1  0  0  0
  4  5  1  0  0  0
  4 24  1  0  0  0
  4 25  1  0  0  0
  5  6  1  0  0  0
  5 26  1  0  0  0
  5 27  1  0  0  0
  6  7  1  0  0  0
  6 28  1  0  0  0
  6 48  1  0  0  0
  7  8  1  0  0  0
  7 29  1  0  0  0
  7 30  1  0  0  0
  8 31  1  0  0  0
  8 32  1  0  0  0
  8 33  1  0  0  0
  9 34  1  0  0  0
  9 35  1  0  0  0
  9 36  1  0  0  0
  9 48  1  0  0  0
 10 11  1  0  0  0
 10 16  1  0  0  0
 10 37  1  0  0  0
 10 48  1  0  0  0
 11 12  1  0  0  0
 11 38  1  0  0  0
 11 39  1  0  0  0
 12 13  1  0  0  0
 12 40  1  0  0  0
 12 41  1  0  0  0
 13 14  1  0  0  0
 13 15  1  0  0  0
 13 42  1  0  0  0
 14 43  1  0  0  0
 15 16  1  0  0  0
 15 44  1  0  0  0
 15 45  1  0  0  0
 16 46  1  0  0  0
 16 47  1  0  0  0
 48 49  1  0  0  0
M  CHG  1  48   1
M  END
> <energy>
29.4032

> <chiral flag>
0

> <version>
0

> <i_ionizer_Ion_state_n>
1

> <i_ionizer_Tot_Q>
1

> <s_ionizer_Ion_centers>
48

> <s_ionizer_Ion_types>
N5

> <s_ionizer_Ion_ctrs_in>
9

> <r_ionizer_Ionization_penalty>
0.00148639

> <r_ionizer_Ionization_penalty_charging>
0.00148639

> <r_ionizer_Ionization_penalty_neutral>
0

$$$$
ZINC001258440321
                    3D
 Structure written by MMmdl.
 49 49  0  0  1  0            999 V2000
   -5.0636    1.8017    0.9615 C   0  0  0  0  0  0
   -4.2953    2.0378   -0.3307 C   0  0  0  0  0  0
   -3.6529    0.7723   -0.9059 C   0  0  0  0  0  0
   -2.3918    0.3362   -0.1538 C   0  0  0  0  0  0
   -1.8524   -0.9927   -0.7011 C   0  0  0  0  0  0
   -0.4174   -1.3065   -0.2061 C   0  0  1  0  0  0
   -0.0478   -2.7872   -0.4566 C   0  0  0  0  0  0
   -0.7398   -3.7279    0.5256 C   0  0  0  0  0  0
    0.5318    0.0721   -2.1194 C   0  0  0  0  0  0
    1.7342   -0.0841    0.0981 C   0  0  1  0  0  0
    3.0963   -0.5967   -0.4091 C   0  0  0  0  0  0
    4.1696   -0.3192    0.6369 C   0  0  0  0  0  0
    4.2666    1.1769    0.9260 C   0  0  2  0  0  0
    5.2415    1.3749    1.9428 O   0  0  0  0  0  0
    2.9205    1.7428    1.3796 C   0  0  0  0  0  0
    1.7991    1.4247    0.3873 C   0  0  0  0  0  0
   -5.8570    1.0612    0.8091 H   0  0  0  0  0  0
   -5.5324    2.7378    1.2842 H   0  0  0  0  0  0
   -4.4097    1.4517    1.7664 H   0  0  0  0  0  0
   -4.9960    2.4328   -1.0766 H   0  0  0  0  0  0
   -3.5313    2.8057   -0.1677 H   0  0  0  0  0  0
   -3.3693    0.9801   -1.9458 H   0  0  0  0  0  0
   -4.3847   -0.0412   -0.9439 H   0  0  0  0  0  0
   -2.6079    0.2088    0.9128 H   0  0  0  0  0  0
   -1.6356    1.1237   -0.2351 H   0  0  0  0  0  0
   -2.5362   -1.7799   -0.3710 H   0  0  0  0  0  0
   -1.8996   -1.0135   -1.7949 H   0  0  0  0  0  0
   -0.4501   -1.1527    0.8817 H   0  0  0  0  0  0
   -0.2958   -3.0742   -1.4854 H   0  0  0  0  0  0
    1.0328   -2.9386   -0.3419 H   0  0  0  0  0  0
   -0.3704   -3.5569    1.5426 H   0  0  0  0  0  0
   -0.5302   -4.7691    0.2611 H   0  0  0  0  0  0
   -1.8255   -3.5944    0.5366 H   0  0  0  0  0  0
    0.1721   -0.6926   -2.8166 H   0  0  0  0  0  0
   -0.1433    0.9322   -2.1750 H   0  0  0  0  0  0
    1.4997    0.4060   -2.5065 H   0  0  0  0  0  0
    1.5829   -0.5736    1.0704 H   0  0  0  0  0  0
    3.3768   -0.1007   -1.3453 H   0  0  0  0  0  0
    3.0602   -1.6724   -0.6091 H   0  0  0  0  0  0
    5.1465   -0.7017    0.3168 H   0  0  0  0  0  0
    3.9292   -0.8555    1.5654 H   0  0  0  0  0  0
    4.6065    1.6959    0.0231 H   0  0  0  0  0  0
    5.5583    2.2895    1.8734 H   0  0  0  0  0  0
    2.6640    1.3272    2.3645 H   0  0  0  0  0  0
    3.0054    2.8238    1.5346 H   0  0  0  0  0  0
    0.8491    1.7727    0.8075 H   0  0  0  0  0  0
    1.9691    1.9875   -0.5380 H   0  0  0  0  0  0
    0.8031   -0.7319   -0.8660 N   0  3  1  0  0  0
    1.3192   -1.5529   -1.2035 H   0  0  0  0  0  0
  1  2  1  0  0  0
  1 17  1  0  0  0
  1 18  1  0  0  0
  1 19  1  0  0  0
  2  3  1  0  0  0
  2 20  1  0  0  0
  2 21  1  0  0  0
  3  4  1  0  0  0
  3 22  1  0  0  0
  3 23  1  0  0  0
  4  5  1  0  0  0
  4 24  1  0  0  0
  4 25  1  0  0  0
  5  6  1  0  0  0
  5 26  1  0  0  0
  5 27  1  0  0  0
  6  7  1  0  0  0
  6 28  1  0  0  0
  6 48  1  0  0  0
  7  8  1  0  0  0
  7 29  1  0  0  0
  7 30  1  0  0  0
  8 31  1  0  0  0
  8 32  1  0  0  0
  8 33  1  0  0  0
  9 34  1  0  0  0
  9 35  1  0  0  0
  9 36  1  0  0  0
  9 48  1  0  0  0
 10 11  1  0  0  0
 10 16  1  0  0  0
 10 37  1  0  0  0
 10 48  1  0  0  0
 11 12  1  0  0  0
 11 38  1  0  0  0
 11 39  1  0  0  0
 12 13  1  0  0  0
 12 40  1  0  0  0
 12 41  1  0  0  0
 13 14  1  0  0  0
 13 15  1  0  0  0
 13 42  1  0  0  0
 14 43  1  0  0  0
 15 16  1  0  0  0
 15 44  1  0  0  0
 15 45  1  0  0  0
 16 46  1  0  0  0
 16 47  1  0  0  0
 48 49  1  0  0  0
M  CHG  1  48   1
M  END
> <energy>
25.3711

> <chiral flag>
0

> <version>
0

> <i_ionizer_Ion_state_n>
1

> <i_ionizer_Tot_Q>
1

> <s_ionizer_Ion_centers>
48

> <s_ionizer_Ion_types>
N5

> <s_ionizer_Ion_ctrs_in>
9

> <r_ionizer_Ionization_penalty>
0.00148639

> <r_ionizer_Ionization_penalty_charging>
0.00148639

> <r_ionizer_Ionization_penalty_neutral>
0

$$$$
ZINC001258440438
                    3D
 Structure written by MMmdl.
 45 46  0  0  1  0            999 V2000
   -4.9981    0.8122    0.6656 C   0  0  0  0  0  0
   -3.5518    0.9722    1.1318 C   0  0  0  0  0  0
   -2.7892   -0.3589    1.1622 C   0  0  0  0  0  0
   -2.3391   -0.8202   -0.2306 C   0  0  0  0  0  0
   -0.9821   -0.2309   -0.6620 C   0  0  0  0  0  0
    0.2398   -1.0131   -0.1168 C   0  0  1  0  0  0
    0.3997   -2.3656   -0.8721 C   0  0  0  0  0  0
    1.4688   -3.2817   -0.2717 C   0  0  0  0  0  0
    1.9765    0.4323   -1.3356 C   0  0  2  0  0  0
    3.4723    0.4886   -1.0027 C   0  0  0  0  0  0
    3.5282    0.4990    0.5316 C   0  0  0  0  0  0
    2.0679    0.3464    0.9812 C   0  0  1  0  0  0
    1.3851    1.6918    1.2076 C   0  0  0  0  0  0
    1.3747    2.5376   -0.0455 C   0  0  0  0  0  0
    1.2505    3.7595    0.0305 O   0  0  0  0  0  0
    1.4018    1.8502   -1.3973 C   0  0  0  0  0  0
   -5.5146    1.7801    0.6858 H   0  0  0  0  0  0
   -5.0594    0.4250   -0.3575 H   0  0  0  0  0  0
   -5.5512    0.1282    1.3227 H   0  0  0  0  0  0
   -3.5680    1.3948    2.1438 H   0  0  0  0  0  0
   -3.0398    1.6977    0.4852 H   0  0  0  0  0  0
   -3.4326   -1.1280    1.6101 H   0  0  0  0  0  0
   -1.9215   -0.2593    1.8249 H   0  0  0  0  0  0
   -3.0954   -0.5350   -0.9691 H   0  0  0  0  0  0
   -2.3103   -1.9126   -0.2456 H   0  0  0  0  0  0
   -0.9529    0.8123   -0.3348 H   0  0  0  0  0  0
   -0.9452   -0.2286   -1.7567 H   0  0  0  0  0  0
    0.0380   -1.2618    0.9328 H   0  0  0  0  0  0
    0.6515   -2.1828   -1.9249 H   0  0  0  0  0  0
   -0.5460   -2.9201   -0.8687 H   0  0  0  0  0  0
    1.4851   -4.2371   -0.8096 H   0  0  0  0  0  0
    2.4723   -2.8477   -0.3483 H   0  0  0  0  0  0
    1.2583   -3.4920    0.7816 H   0  0  0  0  0  0
    1.8242   -0.0855   -2.2869 H   0  0  0  0  0  0
    3.9813    1.3554   -1.4339 H   0  0  0  0  0  0
    3.9818   -0.4082   -1.3775 H   0  0  0  0  0  0
    3.9990    1.4096    0.9115 H   0  0  0  0  0  0
    4.1286   -0.3524    0.8740 H   0  0  0  0  0  0
    2.0220   -0.2592    1.8921 H   0  0  0  0  0  0
    0.3501    1.5516    1.5351 H   0  0  0  0  0  0
    1.9173    2.2520    1.9838 H   0  0  0  0  0  0
    0.3828    1.8481   -1.7922 H   0  0  0  0  0  0
    2.0116    2.4689   -2.0669 H   0  0  0  0  0  0
    1.6757   -0.4285   -0.1857 N   0  3  1  0  0  0
    2.3018   -1.2403   -0.2432 H   0  0  0  0  0  0
  1  2  1  0  0  0
  1 17  1  0  0  0
  1 18  1  0  0  0
  1 19  1  0  0  0
  2  3  1  0  0  0
  2 20  1  0  0  0
  2 21  1  0  0  0
  3  4  1  0  0  0
  3 22  1  0  0  0
  3 23  1  0  0  0
  4  5  1  0  0  0
  4 24  1  0  0  0
  4 25  1  0  0  0
  5  6  1  0  0  0
  5 26  1  0  0  0
  5 27  1  0  0  0
  6  7  1  0  0  0
  6 28  1  0  0  0
  6 44  1  0  0  0
  7  8  1  0  0  0
  7 29  1  0  0  0
  7 30  1  0  0  0
  8 31  1  0  0  0
  8 32  1  0  0  0
  8 33  1  0  0  0
  9 10  1  0  0  0
  9 16  1  0  0  0
  9 34  1  0  0  0
  9 44  1  0  0  0
 10 11  1  0  0  0
 10 35  1  0  0  0
 10 36  1  0  0  0
 11 12  1  0  0  0
 11 37  1  0  0  0
 11 38  1  0  0  0
 12 13  1  0  0  0
 12 39  1  0  0  0
 12 44  1  0  0  0
 13 14  1  0  0  0
 13 40  1  0  0  0
 13 41  1  0  0  0
 14 15  2  0  0  0
 14 16  1  0  0  0
 16 42  1  0  0  0
 16 43  1  0  0  0
 44 45  1  0  0  0
M  CHG  1  44   1
M  END
> <energy>
22.7548

> <chiral flag>
0

> <version>
0

> <i_ionizer_Ion_state_n>
1

> <i_ionizer_Tot_Q>
1

> <s_ionizer_Ion_centers>
44

> <s_ionizer_Ion_types>
N5

> <s_ionizer_Ion_ctrs_in>
9

> <r_ionizer_Ionization_penalty>
0.00148639

> <r_ionizer_Ionization_penalty_charging>
0.00148639

> <r_ionizer_Ionization_penalty_neutral>
0

$$$$
ZINC001258440439
                    3D
 Structure written by MMmdl.
 45 46  0  0  1  0            999 V2000
   -4.9622   -1.1355   -0.6607 C   0  0  0  0  0  0
   -3.9800   -0.2875    0.1330 C   0  0  0  0  0  0
   -2.6479   -1.0131    0.3480 C   0  0  0  0  0  0
   -1.7056   -0.1934    1.2320 C   0  0  0  0  0  0
   -0.3602   -0.8930    1.4887 C   0  0  0  0  0  0
    0.6170   -0.9005    0.2759 C   0  0  2  0  0  0
    1.8835   -1.7279    0.5939 C   0  0  0  0  0  0
    1.6070   -3.2231    0.7470 C   0  0  0  0  0  0
    1.3715    0.6912   -1.5191 C   0  0  2  0  0  0
    2.8854    0.8576   -1.3450 C   0  0  0  0  0  0
    3.0662    1.2839    0.1110 C   0  0  0  0  0  0
    1.6446    1.3805    0.6697 C   0  0  1  0  0  0
    1.0691    2.7872    0.4518 C   0  0  0  0  0  0
    1.0061    3.1313   -1.0268 C   0  0  0  0  0  0
    1.0828    4.2994   -1.4137 O   0  0  0  0  0  0
    0.7298    2.0005   -2.0037 C   0  0  0  0  0  0
   -5.2246   -2.0454   -0.1142 H   0  0  0  0  0  0
   -5.8852   -0.5767   -0.8417 H   0  0  0  0  0  0
   -4.5409   -1.4237   -1.6275 H   0  0  0  0  0  0
   -4.4323   -0.0283    1.0982 H   0  0  0  0  0  0
   -3.8048    0.6520   -0.4047 H   0  0  0  0  0  0
   -2.1846   -1.2074   -0.6253 H   0  0  0  0  0  0
   -2.8328   -1.9861    0.8176 H   0  0  0  0  0  0
   -1.5580    0.8017    0.7977 H   0  0  0  0  0  0
   -2.1922   -0.0285    2.1999 H   0  0  0  0  0  0
   -0.5674   -1.9190    1.8154 H   0  0  0  0  0  0
    0.1211   -0.4022    2.3432 H   0  0  0  0  0  0
    0.0955   -1.4167   -0.5395 H   0  0  0  0  0  0
    2.6074   -1.6330   -0.2199 H   0  0  0  0  0  0
    2.3675   -1.3616    1.5068 H   0  0  0  0  0  0
    1.0824   -3.6147   -0.1311 H   0  0  0  0  0  0
    2.5517   -3.7696    0.8417 H   0  0  0  0  0  0
    1.0094   -3.4480    1.6345 H   0  0  0  0  0  0
    1.1234   -0.1117   -2.2201 H   0  0  0  0  0  0
    3.3112    1.5968   -2.0321 H   0  0  0  0  0  0
    3.4143   -0.0859   -1.5221 H   0  0  0  0  0  0
    3.6134    2.2302    0.1840 H   0  0  0  0  0  0
    3.6487    0.5294    0.6510 H   0  0  0  0  0  0
    1.6135    1.1475    1.7368 H   0  0  0  0  0  0
    0.0529    2.8600    0.8529 H   0  0  0  0  0  0
    1.6919    3.5320    0.9594 H   0  0  0  0  0  0
    1.1252    2.2752   -2.9874 H   0  0  0  0  0  0
   -0.3575    1.8917   -2.0881 H   0  0  0  0  0  0
    0.7848    0.5645   -0.1908 N   0  3  2  0  0  0
   -0.1530    0.9824   -0.2045 H   0  0  0  0  0  0
  1  2  1  0  0  0
  1 17  1  0  0  0
  1 18  1  0  0  0
  1 19  1  0  0  0
  2  3  1  0  0  0
  2 20  1  0  0  0
  2 21  1  0  0  0
  3  4  1  0  0  0
  3 22  1  0  0  0
  3 23  1  0  0  0
  4  5  1  0  0  0
  4 24  1  0  0  0
  4 25  1  0  0  0
  5  6  1  0  0  0
  5 26  1  0  0  0
  5 27  1  0  0  0
  6  7  1  0  0  0
  6 28  1  0  0  0
  6 44  1  0  0  0
  7  8  1  0  0  0
  7 29  1  0  0  0
  7 30  1  0  0  0
  8 31  1  0  0  0
  8 32  1  0  0  0
  8 33  1  0  0  0
  9 10  1  0  0  0
  9 16  1  0  0  0
  9 34  1  0  0  0
  9 44  1  0  0  0
 10 11  1  0  0  0
 10 35  1  0  0  0
 10 36  1  0  0  0
 11 12  1  0  0  0
 11 37  1  0  0  0
 11 38  1  0  0  0
 12 13  1  0  0  0
 12 39  1  0  0  0
 12 44  1  0  0  0
 13 14  1  0  0  0
 13 40  1  0  0  0
 13 41  1  0  0  0
 14 15  2  0  0  0
 14 16  1  0  0  0
 16 42  1  0  0  0
 16 43  1  0  0  0
 44 45  1  0  0  0
M  CHG  1  44   1
M  END
> <energy>
14.8642

> <chiral flag>
0

> <version>
0

> <i_ionizer_Ion_state_n>
1

> <i_ionizer_Tot_Q>
1

> <s_ionizer_Ion_centers>
44

> <s_ionizer_Ion_types>
N5

> <s_ionizer_Ion_ctrs_in>
9

> <r_ionizer_Ionization_penalty>
0.00148639

> <r_ionizer_Ionization_penalty_charging>
0.00148639

> <r_ionizer_Ionization_penalty_neutral>
0

$$$$
ZINC001258440446
                    3D
 Structure written by MMmdl.
 42 42  0  0  1  0            999 V2000
   -4.6481    0.5938   -0.1280 C   0  0  0  0  0  0
   -3.1926    0.2102    0.0842 C   0  0  0  0  0  0
   -2.9570   -1.2835   -0.1682 C   0  0  0  0  0  0
   -1.4933   -1.6854    0.0514 C   0  0  0  0  0  0
   -0.5737   -1.2512   -1.1013 C   0  0  0  0  0  0
    0.8789   -0.8997   -0.6892 C   0  0  2  0  0  0
    1.5644   -2.0943    0.0066 C   0  0  0  0  0  0
    3.0875   -2.0104   -0.0067 C   0  0  0  0  0  0
    1.1583    0.4617    1.4590 C   0  0  0  0  0  0
    1.1868    1.9656    1.7388 C   0  0  1  0  0  0
    2.4548    2.3226    2.0883 F   0  0  0  0  0  0
    0.8410    2.6308    0.4166 C   0  0  0  0  0  0
    1.2315    1.5913   -0.6336 C   0  0  1  0  0  0
    2.7162    1.7036   -1.0072 C   0  0  0  0  0  0
    2.9334    2.9212   -1.5810 F   0  0  0  0  0  0
   -4.7840    1.6651    0.0514 H   0  0  0  0  0  0
   -4.9640    0.3764   -1.1530 H   0  0  0  0  0  0
   -5.3039    0.0500    0.5592 H   0  0  0  0  0  0
   -2.5671    0.8158   -0.5804 H   0  0  0  0  0  0
   -2.9023    0.4601    1.1118 H   0  0  0  0  0  0
   -3.5832   -1.8598    0.5239 H   0  0  0  0  0  0
   -3.2751   -1.5538   -1.1822 H   0  0  0  0  0  0
   -1.4382   -2.7770    0.1399 H   0  0  0  0  0  0
   -1.1605   -1.2858    1.0125 H   0  0  0  0  0  0
   -1.0044   -0.3963   -1.6377 H   0  0  0  0  0  0
   -0.5465   -2.0617   -1.8423 H   0  0  0  0  0  0
    1.4150   -0.7397   -1.6341 H   0  0  0  0  0  0
    1.2105   -2.2069    1.0385 H   0  0  0  0  0  0
    1.2859   -3.0224   -0.5088 H   0  0  0  0  0  0
    3.5118   -2.8778    0.5098 H   0  0  0  0  0  0
    3.4633   -2.0155   -1.0342 H   0  0  0  0  0  0
    3.4666   -1.1123    0.4848 H   0  0  0  0  0  0
    2.1283    0.0310    1.7138 H   0  0  0  0  0  0
    0.3896   -0.0156    2.0731 H   0  0  0  0  0  0
    0.5131    2.2680    2.5453 H   0  0  0  0  0  0
    1.3513    3.5891    0.2820 H   0  0  0  0  0  0
   -0.2411    2.8057    0.3698 H   0  0  0  0  0  0
    0.6324    1.7606   -1.5366 H   0  0  0  0  0  0
    3.0066    0.9457   -1.7397 H   0  0  0  0  0  0
    3.3799    1.6219   -0.1413 H   0  0  0  0  0  0
    0.6631    0.4280    0.0602 N   0  3  1  0  0  0
   -0.3537    0.5644    0.1010 H   0  0  0  0  0  0
  1  2  1  0  0  0
  1 16  1  0  0  0
  1 17  1  0  0  0
  1 18  1  0  0  0
  2  3  1  0  0  0
  2 19  1  0  0  0
  2 20  1  0  0  0
  3  4  1  0  0  0
  3 21  1  0  0  0
  3 22  1  0  0  0
  4  5  1  0  0  0
  4 23  1  0  0  0
  4 24  1  0  0  0
  5  6  1  0  0  0
  5 25  1  0  0  0
  5 26  1  0  0  0
  6  7  1  0  0  0
  6 27  1  0  0  0
  6 41  1  0  0  0
  7  8  1  0  0  0
  7 28  1  0  0  0
  7 29  1  0  0  0
  8 30  1  0  0  0
  8 31  1  0  0  0
  8 32  1  0  0  0
  9 10  1  0  0  0
  9 33  1  0  0  0
  9 34  1  0  0  0
  9 41  1  0  0  0
 10 11  1  0  0  0
 10 12  1  0  0  0
 10 35  1  0  0  0
 12 13  1  0  0  0
 12 36  1  0  0  0
 12 37  1  0  0  0
 13 14  1  0  0  0
 13 38  1  0  0  0
 13 41  1  0  0  0
 14 15  1  0  0  0
 14 39  1  0  0  0
 14 40  1  0  0  0
 41 42  1  0  0  0
M  CHG  1  41   1
M  END
> <energy>
53.2069

> <chiral flag>
0

> <version>
0

> <i_ionizer_Ion_state_n>
1

> <i_ionizer_Tot_Q>
1

> <s_ionizer_Ion_centers>
41

> <s_ionizer_Ion_types>
N5

> <s_ionizer_Ion_ctrs_in>
9

> <r_ionizer_Ionization_penalty>
0.00148639

> <r_ionizer_Ionization_penalty_charging>
0.00148639

> <r_ionizer_Ionization_penalty_neutral>
0

$$$$
ZINC001258440447
                    3D
 Structure written by MMmdl.
 42 42  0  0  1  0            999 V2000
   -3.9187    1.6584   -1.2350 C   0  0  0  0  0  0
   -3.5306    1.3788    0.2112 C   0  0  0  0  0  0
   -3.3021   -0.1122    0.4716 C   0  0  0  0  0  0
   -1.9185   -0.6103    0.0410 C   0  0  0  0  0  0
   -0.8450   -0.3552    1.1100 C   0  0  0  0  0  0
    0.6156   -0.7492    0.7491 C   0  0  1  0  0  0
    0.7419   -2.1080    0.0256 C   0  0  0  0  0  0
    0.2701   -3.2806    0.8775 C   0  0  0  0  0  0
    1.0239    0.5978   -1.3435 C   0  0  0  0  0  0
    2.3626    0.9230   -1.9992 C   0  0  1  0  0  0
    2.2436    1.9432   -2.8803 F   0  0  0  0  0  0
    3.2552    1.3210   -0.8502 C   0  0  0  0  0  0
    2.7593    0.4356    0.2880 C   0  0  1  0  0  0
    3.1672    1.0335    1.6369 C   0  0  0  0  0  0
    4.5259    1.1033    1.7020 F   0  0  0  0  0  0
   -4.7890    1.0619   -1.5292 H   0  0  0  0  0  0
   -3.0987    1.4332   -1.9221 H   0  0  0  0  0  0
   -4.1848    2.7124   -1.3603 H   0  0  0  0  0  0
   -2.6467    1.9657    0.4819 H   0  0  0  0  0  0
   -4.3495    1.7210    0.8567 H   0  0  0  0  0  0
   -3.4518   -0.3205    1.5370 H   0  0  0  0  0  0
   -4.0661   -0.6912   -0.0582 H   0  0  0  0  0  0
   -2.0027   -1.6893   -0.1179 H   0  0  0  0  0  0
   -1.6346   -0.1770   -0.9201 H   0  0  0  0  0  0
   -1.1303   -0.9119    2.0134 H   0  0  0  0  0  0
   -0.8696    0.6984    1.4150 H   0  0  0  0  0  0
    1.1017   -0.8709    1.7267 H   0  0  0  0  0  0
    0.1762   -2.1157   -0.9121 H   0  0  0  0  0  0
    1.7861   -2.2937   -0.2473 H   0  0  0  0  0  0
    0.2970   -4.2041    0.2890 H   0  0  0  0  0  0
   -0.7561   -3.1499    1.2331 H   0  0  0  0  0  0
    0.9235   -3.4128    1.7466 H   0  0  0  0  0  0
    0.5733   -0.2494   -1.8632 H   0  0  0  0  0  0
    0.3339    1.4422   -1.4486 H   0  0  0  0  0  0
    2.7686    0.0500   -2.5238 H   0  0  0  0  0  0
    4.3119    1.1498   -1.0807 H   0  0  0  0  0  0
    3.1353    2.3901   -0.6302 H   0  0  0  0  0  0
    3.2173   -0.5559    0.1782 H   0  0  0  0  0  0
    2.8330    0.4181    2.4760 H   0  0  0  0  0  0
    2.7718    2.0473    1.7731 H   0  0  0  0  0  0
    1.2929    0.4646    0.1113 N   0  3  2  0  0  0
    0.9260    1.3005    0.5813 H   0  0  0  0  0  0
  1  2  1  0  0  0
  1 16  1  0  0  0
  1 17  1  0  0  0
  1 18  1  0  0  0
  2  3  1  0  0  0
  2 19  1  0  0  0
  2 20  1  0  0  0
  3  4  1  0  0  0
  3 21  1  0  0  0
  3 22  1  0  0  0
  4  5  1  0  0  0
  4 23  1  0  0  0
  4 24  1  0  0  0
  5  6  1  0  0  0
  5 25  1  0  0  0
  5 26  1  0  0  0
  6  7  1  0  0  0
  6 27  1  0  0  0
  6 41  1  0  0  0
  7  8  1  0  0  0
  7 28  1  0  0  0
  7 29  1  0  0  0
  8 30  1  0  0  0
  8 31  1  0  0  0
  8 32  1  0  0  0
  9 10  1  0  0  0
  9 33  1  0  0  0
  9 34  1  0  0  0
  9 41  1  0  0  0
 10 11  1  0  0  0
 10 12  1  0  0  0
 10 35  1  0  0  0
 12 13  1  0  0  0
 12 36  1  0  0  0
 12 37  1  0  0  0
 13 14  1  0  0  0
 13 38  1  0  0  0
 13 41  1  0  0  0
 14 15  1  0  0  0
 14 39  1  0  0  0
 14 40  1  0  0  0
 41 42  1  0  0  0
M  CHG  1  41   1
M  END
> <energy>
51.9109

> <chiral flag>
0

> <version>
0

> <i_ionizer_Ion_state_n>
1

> <i_ionizer_Tot_Q>
1

> <s_ionizer_Ion_centers>
41

> <s_ionizer_Ion_types>
N5

> <s_ionizer_Ion_ctrs_in>
9

> <r_ionizer_Ionization_penalty>
0.00148639

> <r_ionizer_Ionization_penalty_charging>
0.00148639

> <r_ionizer_Ionization_penalty_neutral>
0

$$$$
ZINC001258440938
                    3D
 Structure written by MMmdl.
 47 47  0  0  1  0            999 V2000
   -4.2617   -2.5446    0.8154 C   0  0  0  0  0  0
   -3.6310   -1.7674   -0.3280 C   0  0  0  0  0  0
   -2.9298   -0.5071    0.1796 C   0  0  0  0  0  0
   -2.2638    0.2546   -0.9674 C   0  0  0  0  0  0
   -1.6609    1.5951   -0.5367 C   0  0  0  0  0  0
   -0.5377    1.5547    0.5341 C   0  0  2  0  0  0
   -0.2088    3.0117    0.9609 C   0  0  0  0  0  0
    0.7514    3.0988    2.1417 C   0  0  0  0  0  0
    1.1917    1.1043   -1.1873 C   0  0  0  0  0  0
    2.6866    0.8707   -1.3433 C   0  0  0  0  0  0
    2.9792   -0.5626   -1.6949 C   0  0  0  0  0  0
    3.4679   -0.8371   -2.7957 O   0  0  0  0  0  0
    2.6666   -1.6657   -0.6932 C   0  0  1  0  0  0
    3.9347   -2.4949   -0.4700 C   0  0  0  0  0  0
    2.1205   -1.1848    0.6545 C   0  0  0  0  0  0
    0.7230   -0.5552    0.5779 C   0  0  0  0  0  0
   -4.9957   -1.9319    1.3482 H   0  0  0  0  0  0
   -4.7727   -3.4328    0.4331 H   0  0  0  0  0  0
   -3.5013   -2.8707    1.5320 H   0  0  0  0  0  0
   -4.4084   -1.4941   -1.0511 H   0  0  0  0  0  0
   -2.9129   -2.4109   -0.8489 H   0  0  0  0  0  0
   -2.1839   -0.7923    0.9291 H   0  0  0  0  0  0
   -3.6586    0.1412    0.6805 H   0  0  0  0  0  0
   -3.0186    0.4614   -1.7378 H   0  0  0  0  0  0
   -1.5074   -0.3719   -1.4495 H   0  0  0  0  0  0
   -2.4831    2.2149   -0.1514 H   0  0  0  0  0  0
   -1.3060    2.1198   -1.4326 H   0  0  0  0  0  0
   -0.9621    1.0925    1.4350 H   0  0  0  0  0  0
   -1.1390    3.5169    1.2506 H   0  0  0  0  0  0
    0.1996    3.5825    0.1191 H   0  0  0  0  0  0
    0.3704    2.5338    2.9986 H   0  0  0  0  0  0
    0.8692    4.1424    2.4508 H   0  0  0  0  0  0
    1.7436    2.7160    1.8852 H   0  0  0  0  0  0
    1.0263    2.1588   -1.4375 H   0  0  0  0  0  0
    0.6247    0.5162   -1.9184 H   0  0  0  0  0  0
    3.0516    1.4866   -2.1757 H   0  0  0  0  0  0
    3.2657    1.1737   -0.4658 H   0  0  0  0  0  0
    1.9111   -2.3061   -1.1668 H   0  0  0  0  0  0
    4.3269   -2.8847   -1.4159 H   0  0  0  0  0  0
    3.7339   -3.3515    0.1822 H   0  0  0  0  0  0
    4.7250   -1.8898   -0.0109 H   0  0  0  0  0  0
    2.0427   -2.0562    1.3192 H   0  0  0  0  0  0
    2.8214   -0.4968    1.1447 H   0  0  0  0  0  0
    0.3115   -0.6304    1.5932 H   0  0  0  0  0  0
    0.0771   -1.1614   -0.0653 H   0  0  0  0  0  0
    0.7830    0.8931    0.2379 N   0  3  2  0  0  0
    1.4959    1.3283    0.8350 H   0  0  0  0  0  0
  1  2  1  0  0  0
  1 17  1  0  0  0
  1 18  1  0  0  0
  1 19  1  0  0  0
  2  3  1  0  0  0
  2 20  1  0  0  0
  2 21  1  0  0  0
  3  4  1  0  0  0
  3 22  1  0  0  0
  3 23  1  0  0  0
  4  5  1  0  0  0
  4 24  1  0  0  0
  4 25  1  0  0  0
  5  6  1  0  0  0
  5 26  1  0  0  0
  5 27  1  0  0  0
  6  7  1  0  0  0
  6 28  1  0  0  0
  6 46  1  0  0  0
  7  8  1  0  0  0
  7 29  1  0  0  0
  7 30  1  0  0  0
  8 31  1  0  0  0
  8 32  1  0  0  0
  8 33  1  0  0  0
  9 10  1  0  0  0
  9 34  1  0  0  0
  9 35  1  0  0  0
  9 46  1  0  0  0
 10 11  1  0  0  0
 10 36  1  0  0  0
 10 37  1  0  0  0
 11 12  2  0  0  0
 11 13  1  0  0  0
 13 14  1  0  0  0
 13 15  1  0  0  0
 13 38  1  0  0  0
 14 39  1  0  0  0
 14 40  1  0  0  0
 14 41  1  0  0  0
 15 16  1  0  0  0
 15 42  1  0  0  0
 15 43  1  0  0  0
 16 44  1  0  0  0
 16 45  1  0  0  0
 16 46  1  0  0  0
 46 47  1  0  0  0
M  CHG  1  46   1
M  END
> <energy>
16.3783

> <chiral flag>
0

> <version>
0

> <i_ionizer_Ion_state_n>
1

> <i_ionizer_Tot_Q>
1

> <s_ionizer_Ion_centers>
46

> <s_ionizer_Ion_types>
N5

> <s_ionizer_Ion_ctrs_in>
9

> <r_ionizer_Ionization_penalty>
0.00148639

> <r_ionizer_Ionization_penalty_charging>
0.00148639

> <r_ionizer_Ionization_penalty_neutral>
0

$$$$
ZINC001258440939
                    3D
 Structure written by MMmdl.
 47 47  0  0  1  0            999 V2000
   -5.3644   -1.0009   -0.5728 C   0  0  0  0  0  0
   -4.5213    0.2570   -0.7061 C   0  0  0  0  0  0
   -3.0239   -0.0505   -0.6242 C   0  0  0  0  0  0
   -2.1846    1.2338   -0.7104 C   0  0  0  0  0  0
   -0.6725    0.9919   -0.5353 C   0  0  0  0  0  0
   -0.2367    0.6352    0.9157 C   0  0  2  0  0  0
   -0.3081    1.8859    1.8318 C   0  0  0  0  0  0
   -0.2074    1.5611    3.3198 C   0  0  0  0  0  0
    2.3192    0.5827    1.0849 C   0  0  0  0  0  0
    2.9327    1.0045   -0.2426 C   0  0  0  0  0  0
    3.8126   -0.0778   -0.8191 C   0  0  0  0  0  0
    4.9473    0.2071   -1.2152 O   0  0  0  0  0  0
    3.2881   -1.5121   -0.8974 C   0  0  2  0  0  0
    3.8812   -2.2026   -2.1334 C   0  0  0  0  0  0
    1.7569   -1.6006   -0.9622 C   0  0  0  0  0  0
    1.0485   -1.4313    0.3900 C   0  0  0  0  0  0
   -5.1406   -1.7126   -1.3743 H   0  0  0  0  0  0
   -6.4264   -0.7456   -0.6327 H   0  0  0  0  0  0
   -5.1863   -1.4892    0.3924 H   0  0  0  0  0  0
   -4.7500    0.7432   -1.6613 H   0  0  0  0  0  0
   -4.7953    0.9567    0.0903 H   0  0  0  0  0  0
   -2.7415   -0.7247   -1.4408 H   0  0  0  0  0  0
   -2.8210   -0.5798    0.3110 H   0  0  0  0  0  0
   -2.5470    1.9664    0.0176 H   0  0  0  0  0  0
   -2.3473    1.6802   -1.7005 H   0  0  0  0  0  0
   -0.4035    0.1966   -1.2347 H   0  0  0  0  0  0
   -0.1368    1.8894   -0.8653 H   0  0  0  0  0  0
   -0.9883   -0.0527    1.3209 H   0  0  0  0  0  0
   -1.2610    2.4055    1.6833 H   0  0  0  0  0  0
    0.4591    2.6182    1.5570 H   0  0  0  0  0  0
    0.7552    1.1132    3.5799 H   0  0  0  0  0  0
   -1.0044    0.8751    3.6232 H   0  0  0  0  0  0
   -0.3174    2.4793    3.9089 H   0  0  0  0  0  0
    2.2454    1.4634    1.7298 H   0  0  0  0  0  0
    3.0159   -0.0718    1.6273 H   0  0  0  0  0  0
    2.1886    1.3126   -0.9812 H   0  0  0  0  0  0
    3.5766    1.8756   -0.0644 H   0  0  0  0  0  0
    3.6557   -2.0315   -0.0049 H   0  0  0  0  0  0
    4.9774   -2.1670   -2.1270 H   0  0  0  0  0  0
    3.5857   -3.2572   -2.1694 H   0  0  0  0  0  0
    3.5366   -1.7190   -3.0553 H   0  0  0  0  0  0
    1.4800   -2.5966   -1.3337 H   0  0  0  0  0  0
    1.3696   -0.8902   -1.7004 H   0  0  0  0  0  0
    0.0186   -1.7964    0.2744 H   0  0  0  0  0  0
    1.4978   -2.1208    1.1156 H   0  0  0  0  0  0
    1.0213   -0.1853    1.1949 N   0  3  2  0  0  0
    0.9533   -0.4773    2.1769 H   0  0  0  0  0  0
  1  2  1  0  0  0
  1 17  1  0  0  0
  1 18  1  0  0  0
  1 19  1  0  0  0
  2  3  1  0  0  0
  2 20  1  0  0  0
  2 21  1  0  0  0
  3  4  1  0  0  0
  3 22  1  0  0  0
  3 23  1  0  0  0
  4  5  1  0  0  0
  4 24  1  0  0  0
  4 25  1  0  0  0
  5  6  1  0  0  0
  5 26  1  0  0  0
  5 27  1  0  0  0
  6  7  1  0  0  0
  6 28  1  0  0  0
  6 46  1  0  0  0
  7  8  1  0  0  0
  7 29  1  0  0  0
  7 30  1  0  0  0
  8 31  1  0  0  0
  8 32  1  0  0  0
  8 33  1  0  0  0
  9 10  1  0  0  0
  9 34  1  0  0  0
  9 35  1  0  0  0
  9 46  1  0  0  0
 10 11  1  0  0  0
 10 36  1  0  0  0
 10 37  1  0  0  0
 11 12  2  0  0  0
 11 13  1  0  0  0
 13 14  1  0  0  0
 13 15  1  0  0  0
 13 38  1  0  0  0
 14 39  1  0  0  0
 14 40  1  0  0  0
 14 41  1  0  0  0
 15 16  1  0  0  0
 15 42  1  0  0  0
 15 43  1  0  0  0
 16 44  1  0  0  0
 16 45  1  0  0  0
 16 46  1  0  0  0
 46 47  1  0  0  0
M  CHG  1  46   1
M  END
> <energy>
25.4935

> <chiral flag>
0

> <version>
0

> <i_ionizer_Ion_state_n>
1

> <i_ionizer_Tot_Q>
1

> <s_ionizer_Ion_centers>
46

> <s_ionizer_Ion_types>
N5

> <s_ionizer_Ion_ctrs_in>
9

> <r_ionizer_Ionization_penalty>
0.00148639

> <r_ionizer_Ionization_penalty_charging>
0.00148639

> <r_ionizer_Ionization_penalty_neutral>
0

$$$$
ZINC001258440940
                    3D
 Structure written by MMmdl.
 47 47  0  0  1  0            999 V2000
   -3.3807    2.9659   -0.5966 C   0  0  0  0  0  0
   -4.1480    1.7855   -0.0246 C   0  0  0  0  0  0
   -3.4684    0.4337   -0.2522 C   0  0  0  0  0  0
   -2.0932    0.3222    0.4154 C   0  0  0  0  0  0
   -1.5844   -1.1260    0.3979 C   0  0  0  0  0  0
   -0.1961   -1.3145    1.0624 C   0  0  1  0  0  0
    0.0989   -2.8158    1.3519 C   0  0  0  0  0  0
   -0.0732   -3.8061    0.2061 C   0  0  0  0  0  0
    1.2940   -1.0692   -0.9272 C   0  0  0  0  0  0
    1.5743    0.0660   -1.9076 C   0  0  0  0  0  0
    2.9343    0.6960   -1.7326 C   0  0  0  0  0  0
    3.7282    0.7474   -2.6773 O   0  0  0  0  0  0
    3.2985    1.3144   -0.3947 C   0  0  1  0  0  0
    2.4538    2.5441   -0.0865 C   0  0  0  0  0  0
    3.3051    0.2523    0.7029 C   0  0  0  0  0  0
    1.9471   -0.1596    1.2867 C   0  0  0  0  0  0
   -2.4217    3.1037   -0.0870 H   0  0  0  0  0  0
   -3.9597    3.8863   -0.4638 H   0  0  0  0  0  0
   -3.1896    2.8372   -1.6680 H   0  0  0  0  0  0
   -5.1433    1.7580   -0.4829 H   0  0  0  0  0  0
   -4.3004    1.9422    1.0499 H   0  0  0  0  0  0
   -3.3710    0.2394   -1.3284 H   0  0  0  0  0  0
   -4.1277   -0.3452    0.1466 H   0  0  0  0  0  0
   -1.3822    0.9762   -0.0993 H   0  0  0  0  0  0
   -2.1602    0.6675    1.4545 H   0  0  0  0  0  0
   -2.3134   -1.7479    0.9354 H   0  0  0  0  0  0
   -1.5705   -1.4850   -0.6369 H   0  0  0  0  0  0
   -0.3035   -0.8572    2.0568 H   0  0  0  0  0  0
    1.1082   -2.9340    1.7659 H   0  0  0  0  0  0
   -0.5796   -3.1334    2.1574 H   0  0  0  0  0  0
   -1.0448   -3.7037   -0.2834 H   0  0  0  0  0  0
    0.7151   -3.7109   -0.5412 H   0  0  0  0  0  0
   -0.0170   -4.8281    0.5944 H   0  0  0  0  0  0
    0.4854   -1.6431   -1.3863 H   0  0  0  0  0  0
    2.1435   -1.7562   -0.8288 H   0  0  0  0  0  0
    1.5353   -0.3405   -2.9272 H   0  0  0  0  0  0
    0.8124    0.8516   -1.8586 H   0  0  0  0  0  0
    4.3383    1.6553   -0.5033 H   0  0  0  0  0  0
    2.7688    2.9958    0.8594 H   0  0  0  0  0  0
    2.5648    3.2944   -0.8788 H   0  0  0  0  0  0
    1.3875    2.3128   -0.0134 H   0  0  0  0  0  0
    3.8265   -0.6450    0.3460 H   0  0  0  0  0  0
    3.9113    0.6305    1.5377 H   0  0  0  0  0  0
    2.1563   -0.9774    1.9879 H   0  0  0  0  0  0
    1.5738    0.6679    1.9039 H   0  0  0  0  0  0
    0.8204   -0.4511    0.3634 N   0  3  2  0  0  0
    0.3680    0.4402    0.1287 H   0  0  0  0  0  0
  1  2  1  0  0  0
  1 17  1  0  0  0
  1 18  1  0  0  0
  1 19  1  0  0  0
  2  3  1  0  0  0
  2 20  1  0  0  0
  2 21  1  0  0  0
  3  4  1  0  0  0
  3 22  1  0  0  0
  3 23  1  0  0  0
  4  5  1  0  0  0
  4 24  1  0  0  0
  4 25  1  0  0  0
  5  6  1  0  0  0
  5 26  1  0  0  0
  5 27  1  0  0  0
  6  7  1  0  0  0
  6 28  1  0  0  0
  6 46  1  0  0  0
  7  8  1  0  0  0
  7 29  1  0  0  0
  7 30  1  0  0  0
  8 31  1  0  0  0
  8 32  1  0  0  0
  8 33  1  0  0  0
  9 10  1  0  0  0
  9 34  1  0  0  0
  9 35  1  0  0  0
  9 46  1  0  0  0
 10 11  1  0  0  0
 10 36  1  0  0  0
 10 37  1  0  0  0
 11 12  2  0  0  0
 11 13  1  0  0  0
 13 14  1  0  0  0
 13 15  1  0  0  0
 13 38  1  0  0  0
 14 39  1  0  0  0
 14 40  1  0  0  0
 14 41  1  0  0  0
 15 16  1  0  0  0
 15 42  1  0  0  0
 15 43  1  0  0  0
 16 44  1  0  0  0
 16 45  1  0  0  0
 16 46  1  0  0  0
 46 47  1  0  0  0
M  CHG  1  46   1
M  END
> <energy>
20.6036

> <chiral flag>
0

> <version>
0

> <i_ionizer_Ion_state_n>
1

> <i_ionizer_Tot_Q>
1

> <s_ionizer_Ion_centers>
46

> <s_ionizer_Ion_types>
N5

> <s_ionizer_Ion_ctrs_in>
9

> <r_ionizer_Ionization_penalty>
0.00148639

> <r_ionizer_Ionization_penalty_charging>
0.00148639

> <r_ionizer_Ionization_penalty_neutral>
0

$$$$
ZINC001258440941
                    3D
 Structure written by MMmdl.
 47 47  0  0  1  0            999 V2000
   -4.8531    2.6253    0.4084 C   0  0  0  0  0  0
   -4.0972    1.7110   -0.5429 C   0  0  0  0  0  0
   -3.3259    0.6342    0.2194 C   0  0  0  0  0  0
   -2.6244   -0.3358   -0.7366 C   0  0  0  0  0  0
   -1.7422   -1.3628   -0.0054 C   0  0  0  0  0  0
   -0.4187   -0.7812    0.5586 C   0  0  1  0  0  0
    0.2594   -1.7383    1.5699 C   0  0  0  0  0  0
    0.4171   -3.2032    1.1875 C   0  0  0  0  0  0
    1.2213   -1.1546   -1.3469 C   0  0  0  0  0  0
    2.6613   -1.3039   -0.8742 C   0  0  0  0  0  0
    3.4695   -0.1060   -1.2949 C   0  0  0  0  0  0
    4.2247   -0.1719   -2.2691 O   0  0  0  0  0  0
    3.3821    1.1725   -0.4734 C   0  0  2  0  0  0
    4.6058    1.2486    0.4353 C   0  0  0  0  0  0
    2.0983    1.3565    0.3436 C   0  0  0  0  0  0
    0.8184    1.1278   -0.4597 C   0  0  0  0  0  0
   -5.5662    2.0588    1.0150 H   0  0  0  0  0  0
   -4.1666    3.1459    1.0845 H   0  0  0  0  0  0
   -5.4116    3.3807   -0.1530 H   0  0  0  0  0  0
   -3.4028    2.3119   -1.1413 H   0  0  0  0  0  0
   -4.8072    1.2475   -1.2365 H   0  0  0  0  0  0
   -4.0153    0.0709    0.8611 H   0  0  0  0  0  0
   -2.6014    1.1211    0.8785 H   0  0  0  0  0  0
   -3.3918   -0.8795   -1.3012 H   0  0  0  0  0  0
   -2.0382    0.2209   -1.4762 H   0  0  0  0  0  0
   -1.5203   -2.1779   -0.7059 H   0  0  0  0  0  0
   -2.3251   -1.8065    0.8110 H   0  0  0  0  0  0
   -0.7101    0.0766    1.1804 H   0  0  0  0  0  0
    1.2362   -1.3389    1.8639 H   0  0  0  0  0  0
   -0.3416   -1.7169    2.4897 H   0  0  0  0  0  0
    0.8224   -3.7595    2.0414 H   0  0  0  0  0  0
   -0.5405   -3.6639    0.9324 H   0  0  0  0  0  0
    1.1075   -3.3527    0.3562 H   0  0  0  0  0  0
    1.2173   -0.7805   -2.3801 H   0  0  0  0  0  0
    0.7525   -2.1403   -1.4186 H   0  0  0  0  0  0
    2.7657   -1.4594    0.2024 H   0  0  0  0  0  0
    3.1080   -2.1848   -1.3515 H   0  0  0  0  0  0
    3.4330    1.9968   -1.1977 H   0  0  0  0  0  0
    5.5311    1.1764   -0.1465 H   0  0  0  0  0  0
    4.6258    2.1922    0.9895 H   0  0  0  0  0  0
    4.6076    0.4253    1.1585 H   0  0  0  0  0  0
    2.0844    2.3905    0.7149 H   0  0  0  0  0  0
    2.1083    0.7272    1.2414 H   0  0  0  0  0  0
    0.0111    1.7242   -0.0158 H   0  0  0  0  0  0
    0.9306    1.5402   -1.4714 H   0  0  0  0  0  0
    0.2382   -0.2205   -0.6918 N   0  3  2  0  0  0
   -0.5197   -0.0918   -1.3723 H   0  0  0  0  0  0
  1  2  1  0  0  0
  1 17  1  0  0  0
  1 18  1  0  0  0
  1 19  1  0  0  0
  2  3  1  0  0  0
  2 20  1  0  0  0
  2 21  1  0  0  0
  3  4  1  0  0  0
  3 22  1  0  0  0
  3 23  1  0  0  0
  4  5  1  0  0  0
  4 24  1  0  0  0
  4 25  1  0  0  0
  5  6  1  0  0  0
  5 26  1  0  0  0
  5 27  1  0  0  0
  6  7  1  0  0  0
  6 28  1  0  0  0
  6 46  1  0  0  0
  7  8  1  0  0  0
  7 29  1  0  0  0
  7 30  1  0  0  0
  8 31  1  0  0  0
  8 32  1  0  0  0
  8 33  1  0  0  0
  9 10  1  0  0  0
  9 34  1  0  0  0
  9 35  1  0  0  0
  9 46  1  0  0  0
 10 11  1  0  0  0
 10 36  1  0  0  0
 10 37  1  0  0  0
 11 12  2  0  0  0
 11 13  1  0  0  0
 13 14  1  0  0  0
 13 15  1  0  0  0
 13 38  1  0  0  0
 14 39  1  0  0  0
 14 40  1  0  0  0
 14 41  1  0  0  0
 15 16  1  0  0  0
 15 42  1  0  0  0
 15 43  1  0  0  0
 16 44  1  0  0  0
 16 45  1  0  0  0
 16 46  1  0  0  0
 46 47  1  0  0  0
M  CHG  1  46   1
M  END
> <energy>
25.9057

> <chiral flag>
0

> <version>
0

> <i_ionizer_Ion_state_n>
1

> <i_ionizer_Tot_Q>
1

> <s_ionizer_Ion_centers>
46

> <s_ionizer_Ion_types>
N5

> <s_ionizer_Ion_ctrs_in>
9

> <r_ionizer_Ionization_penalty>
0.00148639

> <r_ionizer_Ionization_penalty_charging>
0.00148639

> <r_ionizer_Ionization_penalty_neutral>
0

$$$$
ZINC001258440970
                    3D
 Structure written by MMmdl.
 44 44  0  0  1  0            999 V2000
   -2.2422    2.3723    2.0158 C   0  0  0  0  0  0
   -2.5756    1.1643    1.1518 C   0  0  0  0  0  0
   -1.7940    1.1909   -0.1598 C   0  0  0  0  0  0
   -2.1068    0.0219   -1.0939 C   0  0  0  0  0  0
   -1.7117   -1.3899   -0.6246 C   0  0  0  0  0  0
   -0.1979   -1.6918   -0.3912 C   0  0  2  0  0  0
    0.2395   -1.3723    1.0645 C   0  0  0  0  0  0
   -0.4871   -2.1972    2.1255 C   0  0  0  0  0  0
    0.4677   -1.8663   -2.7296 C   0  0  0  0  0  0
    2.0491   -0.9007   -1.2076 C   0  0  0  0  0  0
    2.3454    0.4445   -0.5802 C   0  0  0  0  0  0
    3.1303    0.5511    0.5711 C   0  0  0  0  0  0
    3.3842    1.8125    1.0888 C   0  0  0  0  0  0
    2.9295    2.9594    0.5408 N   0  0  0  0  0  0
    2.1840    2.8384   -0.5781 C   0  0  0  0  0  0
    1.8760    1.6241   -1.1701 C   0  0  0  0  0  0
   -2.8074    2.3377    2.9521 H   0  0  0  0  0  0
   -1.1755    2.3945    2.2620 H   0  0  0  0  0  0
   -2.4946    3.3048    1.5017 H   0  0  0  0  0  0
   -2.3489    0.2564    1.7167 H   0  0  0  0  0  0
   -3.6516    1.1559    0.9433 H   0  0  0  0  0  0
   -2.0405    2.1195   -0.6918 H   0  0  0  0  0  0
   -0.7222    1.2389    0.0409 H   0  0  0  0  0  0
   -1.6358    0.2234   -2.0641 H   0  0  0  0  0  0
   -3.1870    0.0183   -1.2926 H   0  0  0  0  0  0
   -2.0714   -2.0841   -1.3962 H   0  0  0  0  0  0
   -2.3033   -1.6484    0.2574 H   0  0  0  0  0  0
   -0.0849   -2.7844   -0.4652 H   0  0  0  0  0  0
    1.2980   -1.6184    1.1929 H   0  0  0  0  0  0
    0.1284   -0.3109    1.2962 H   0  0  0  0  0  0
   -0.0106   -2.0494    3.1006 H   0  0  0  0  0  0
   -0.4418   -3.2657    1.8911 H   0  0  0  0  0  0
   -1.5349   -1.9087    2.2325 H   0  0  0  0  0  0
    0.8812   -2.8771   -2.6332 H   0  0  0  0  0  0
    0.9798   -1.3634   -3.5589 H   0  0  0  0  0  0
   -0.5788   -1.9470   -3.0382 H   0  0  0  0  0  0
    2.6275   -0.8994   -2.1426 H   0  0  0  0  0  0
    2.4648   -1.7332   -0.6270 H   0  0  0  0  0  0
    3.5311   -0.3271    1.0651 H   0  0  0  0  0  0
    3.9795    1.9372    1.9894 H   0  0  0  0  0  0
    1.8259    3.7723   -1.0014 H   0  0  0  0  0  0
    1.2654    1.5933   -2.0670 H   0  0  0  0  0  0
    0.5967   -1.0527   -1.5214 N   0  3  2  0  0  0
    0.2056   -0.1204   -1.7008 H   0  0  0  0  0  0
  1  2  1  0  0  0
  1 17  1  0  0  0
  1 18  1  0  0  0
  1 19  1  0  0  0
  2  3  1  0  0  0
  2 20  1  0  0  0
  2 21  1  0  0  0
  3  4  1  0  0  0
  3 22  1  0  0  0
  3 23  1  0  0  0
  4  5  1  0  0  0
  4 24  1  0  0  0
  4 25  1  0  0  0
  5  6  1  0  0  0
  5 26  1  0  0  0
  5 27  1  0  0  0
  6  7  1  0  0  0
  6 28  1  0  0  0
  6 43  1  0  0  0
  7  8  1  0  0  0
  7 29  1  0  0  0
  7 30  1  0  0  0
  8 31  1  0  0  0
  8 32  1  0  0  0
  8 33  1  0  0  0
  9 34  1  0  0  0
  9 35  1  0  0  0
  9 36  1  0  0  0
  9 43  1  0  0  0
 10 11  1  0  0  0
 10 37  1  0  0  0
 10 38  1  0  0  0
 10 43  1  0  0  0
 11 12  2  0  0  0
 11 16  1  0  0  0
 12 13  1  0  0  0
 12 39  1  0  0  0
 13 14  2  0  0  0
 13 40  1  0  0  0
 14 15  1  0  0  0
 15 16  2  0  0  0
 15 41  1  0  0  0
 16 42  1  0  0  0
 43 44  1  0  0  0
M  CHG  1  43   1
M  END
> <energy>
30.9451

> <chiral flag>
0

> <version>
0

> <i_ionizer_Ion_state_n>
1

> <i_ionizer_Tot_Q>
1

> <s_ionizer_Ion_centers>
43

> <s_ionizer_Ion_types>
N5

> <s_ionizer_Ion_ctrs_in>
9

> <r_ionizer_Ionization_penalty>
0.00889878

> <r_ionizer_Ionization_penalty_charging>
0.00148639

> <r_ionizer_Ionization_penalty_neutral>
0.00741239

$$$$
ZINC001258440971
                    3D
 Structure written by MMmdl.
 44 44  0  0  1  0            999 V2000
   -3.8500    0.7360    0.9762 C   0  0  0  0  0  0
   -2.9850   -0.5113    1.0465 C   0  0  0  0  0  0
   -1.6626   -0.2257    1.7582 C   0  0  0  0  0  0
   -0.7771   -1.4689    1.8816 C   0  0  0  0  0  0
   -0.0595   -1.8629    0.5838 C   0  0  0  0  0  0
    1.0742   -0.8970    0.1286 C   0  0  1  0  0  0
    2.4423   -1.2428    0.7858 C   0  0  0  0  0  0
    2.6974   -0.5348    2.1109 C   0  0  0  0  0  0
    1.3837   -2.2078   -1.9506 C   0  0  0  0  0  0
    0.2966   -0.0537   -2.0680 C   0  0  0  0  0  0
    0.3953    1.4323   -1.7842 C   0  0  0  0  0  0
   -0.7590    2.2200   -1.7606 C   0  0  0  0  0  0
   -0.6396    3.5755   -1.4897 C   0  0  0  0  0  0
    0.5367    4.1965   -1.2598 N   0  0  0  0  0  0
    1.6426    3.4252   -1.3082 C   0  0  0  0  0  0
    1.6271    2.0660   -1.5800 C   0  0  0  0  0  0
   -4.8402    0.4907    0.5795 H   0  0  0  0  0  0
   -3.9814    1.1794    1.9677 H   0  0  0  0  0  0
   -3.3956    1.4845    0.3206 H   0  0  0  0  0  0
   -3.5303   -1.2924    1.5896 H   0  0  0  0  0  0
   -2.8095   -0.8826    0.0317 H   0  0  0  0  0  0
   -1.1346    0.5903    1.2550 H   0  0  0  0  0  0
   -1.8856    0.1317    2.7708 H   0  0  0  0  0  0
   -0.0490   -1.3141    2.6798 H   0  0  0  0  0  0
   -1.4019   -2.3140    2.2034 H   0  0  0  0  0  0
   -0.8229   -1.9617   -0.1968 H   0  0  0  0  0  0
    0.3502   -2.8746    0.7133 H   0  0  0  0  0  0
    0.8299    0.1202    0.4466 H   0  0  0  0  0  0
    3.2611   -0.9357    0.1212 H   0  0  0  0  0  0
    2.5484   -2.3265    0.9182 H   0  0  0  0  0  0
    1.9453   -0.7635    2.8662 H   0  0  0  0  0  0
    2.7306    0.5514    1.9689 H   0  0  0  0  0  0
    3.6693   -0.8442    2.5132 H   0  0  0  0  0  0
    0.4217   -2.7347   -1.9735 H   0  0  0  0  0  0
    2.1069   -2.8361   -1.4210 H   0  0  0  0  0  0
    1.7472   -2.1275   -2.9833 H   0  0  0  0  0  0
   -0.7226   -0.3999   -1.8511 H   0  0  0  0  0  0
    0.4422   -0.1645   -3.1510 H   0  0  0  0  0  0
   -1.7419    1.7934   -1.9339 H   0  0  0  0  0  0
   -1.5143    4.2165   -1.4501 H   0  0  0  0  0  0
    2.5753    3.9418   -1.1036 H   0  0  0  0  0  0
    2.5545    1.5055   -1.6059 H   0  0  0  0  0  0
    1.3378   -0.8514   -1.3677 N   0  3  1  0  0  0
    2.2490   -0.4025   -1.5180 H   0  0  0  0  0  0
  1  2  1  0  0  0
  1 17  1  0  0  0
  1 18  1  0  0  0
  1 19  1  0  0  0
  2  3  1  0  0  0
  2 20  1  0  0  0
  2 21  1  0  0  0
  3  4  1  0  0  0
  3 22  1  0  0  0
  3 23  1  0  0  0
  4  5  1  0  0  0
  4 24  1  0  0  0
  4 25  1  0  0  0
  5  6  1  0  0  0
  5 26  1  0  0  0
  5 27  1  0  0  0
  6  7  1  0  0  0
  6 28  1  0  0  0
  6 43  1  0  0  0
  7  8  1  0  0  0
  7 29  1  0  0  0
  7 30  1  0  0  0
  8 31  1  0  0  0
  8 32  1  0  0  0
  8 33  1  0  0  0
  9 34  1  0  0  0
  9 35  1  0  0  0
  9 36  1  0  0  0
  9 43  1  0  0  0
 10 11  1  0  0  0
 10 37  1  0  0  0
 10 38  1  0  0  0
 10 43  1  0  0  0
 11 12  2  0  0  0
 11 16  1  0  0  0
 12 13  1  0  0  0
 12 39  1  0  0  0
 13 14  2  0  0  0
 13 40  1  0  0  0
 14 15  1  0  0  0
 15 16  2  0  0  0
 15 41  1  0  0  0
 16 42  1  0  0  0
 43 44  1  0  0  0
M  CHG  1  43   1
M  END
> <energy>
29.8834

> <chiral flag>
0

> <version>
0

> <i_ionizer_Ion_state_n>
1

> <i_ionizer_Tot_Q>
1

> <s_ionizer_Ion_centers>
43

> <s_ionizer_Ion_types>
N5

> <s_ionizer_Ion_ctrs_in>
9

> <r_ionizer_Ionization_penalty>
0.00889878

> <r_ionizer_Ionization_penalty_charging>
0.00148639

> <r_ionizer_Ionization_penalty_neutral>
0.00741239

$$$$
ZINC001258441034
                    3D
 Structure written by MMmdl.
 43 44  0  0  1  0            999 V2000
   -2.9451    2.9592    0.6267 C   0  0  0  0  0  0
   -2.1478    1.6668    0.6117 C   0  0  0  0  0  0
   -2.9650    0.4838    1.1374 C   0  0  0  0  0  0
   -2.1864   -0.8366    1.1619 C   0  0  0  0  0  0
   -1.7784   -1.3496   -0.2297 C   0  0  0  0  0  0
   -0.2748   -1.7163   -0.4274 C   0  0  1  0  0  0
   -0.1125   -2.5261   -1.7463 C   0  0  0  0  0  0
   -0.4753   -1.7829   -3.0266 C   0  0  0  0  0  0
    1.9488   -0.6248   -0.8838 C   0  0  0  0  0  0
    2.3496    0.2309    0.2817 C   0  0  0  0  0  0
    3.6678    0.0904    0.9935 C   0  0  0  0  0  0
    3.5945    1.6217    1.2414 C   0  0  0  0  0  0
    2.5663    1.7148    0.0829 C   0  0  0  0  0  0
    1.0935   -0.2239    0.9769 C   0  0  0  0  0  0
   -3.7281    2.9510   -0.1393 H   0  0  0  0  0  0
   -2.2840    3.8038    0.4198 H   0  0  0  0  0  0
   -3.4172    3.1276    1.5985 H   0  0  0  0  0  0
   -1.7991    1.4816   -0.4098 H   0  0  0  0  0  0
   -1.2566    1.8052    1.2371 H   0  0  0  0  0  0
   -3.2907    0.7027    2.1613 H   0  0  0  0  0  0
   -3.8738    0.3587    0.5358 H   0  0  0  0  0  0
   -2.8276   -1.5930    1.6307 H   0  0  0  0  0  0
   -1.3315   -0.7482    1.8320 H   0  0  0  0  0  0
   -2.0847   -0.6298   -0.9963 H   0  0  0  0  0  0
   -2.3881   -2.2405   -0.4292 H   0  0  0  0  0  0
    0.0148   -2.4052    0.3803 H   0  0  0  0  0  0
   -0.7300   -3.4317   -1.6853 H   0  0  0  0  0  0
    0.9147   -2.8986   -1.8355 H   0  0  0  0  0  0
   -0.2636   -2.4134   -3.8981 H   0  0  0  0  0  0
    0.0969   -0.8549   -3.1304 H   0  0  0  0  0  0
   -1.5387   -1.5358   -3.0574 H   0  0  0  0  0  0
    2.3811   -1.6312   -0.8520 H   0  0  0  0  0  0
    2.1265   -0.1903   -1.8740 H   0  0  0  0  0  0
    4.5059   -0.2167    0.3580 H   0  0  0  0  0  0
    3.6836   -0.5231    1.9004 H   0  0  0  0  0  0
    4.5228    2.1780    1.0904 H   0  0  0  0  0  0
    3.1632    1.8927    2.2117 H   0  0  0  0  0  0
    1.7040    2.3661    0.2581 H   0  0  0  0  0  0
    3.0110    1.9813   -0.8842 H   0  0  0  0  0  0
    1.2410   -1.1101    1.6112 H   0  0  0  0  0  0
    0.5811    0.5433    1.5602 H   0  0  0  0  0  0
    0.6445   -0.4644   -0.3229 N   0  3  0  0  0  0
    0.1506    0.3412   -0.7244 H   0  0  0  0  0  0
  1  2  1  0  0  0
  1 15  1  0  0  0
  1 16  1  0  0  0
  1 17  1  0  0  0
  2  3  1  0  0  0
  2 18  1  0  0  0
  2 19  1  0  0  0
  3  4  1  0  0  0
  3 20  1  0  0  0
  3 21  1  0  0  0
  4  5  1  0  0  0
  4 22  1  0  0  0
  4 23  1  0  0  0
  5  6  1  0  0  0
  5 24  1  0  0  0
  5 25  1  0  0  0
  6  7  1  0  0  0
  6 26  1  0  0  0
  6 42  1  0  0  0
  7  8  1  0  0  0
  7 27  1  0  0  0
  7 28  1  0  0  0
  8 29  1  0  0  0
  8 30  1  0  0  0
  8 31  1  0  0  0
  9 10  1  0  0  0
  9 32  1  0  0  0
  9 33  1  0  0  0
  9 42  1  0  0  0
 10 11  1  0  0  0
 10 13  1  0  0  0
 10 14  1  0  0  0
 11 12  1  0  0  0
 11 34  1  0  0  0
 11 35  1  0  0  0
 12 13  1  0  0  0
 12 36  1  0  0  0
 12 37  1  0  0  0
 13 38  1  0  0  0
 13 39  1  0  0  0
 14 40  1  0  0  0
 14 41  1  0  0  0
 14 42  1  0  0  0
 42 43  1  0  0  0
M  CHG  1  42   1
M  END
> <energy>
43.7176

> <chiral flag>
0

> <version>
0

> <i_ionizer_Ion_state_n>
1

> <i_ionizer_Tot_Q>
1

> <s_ionizer_Ion_centers>
42

> <s_ionizer_Ion_types>
N5

> <s_ionizer_Ion_ctrs_in>
9

> <r_ionizer_Ionization_penalty>
0.00148639

> <r_ionizer_Ionization_penalty_charging>
0.00148639

> <r_ionizer_Ionization_penalty_neutral>
0

$$$$
ZINC001258441036
                    3D
 Structure written by MMmdl.
 43 44  0  0  1  0            999 V2000
   -3.7663    0.4951    1.2237 C   0  0  0  0  0  0
   -3.1756   -0.4643    0.2021 C   0  0  0  0  0  0
   -2.1158   -1.3665    0.8445 C   0  0  0  0  0  0
   -1.5416   -2.3901   -0.1342 C   0  0  0  0  0  0
   -0.6188   -1.8460   -1.2296 C   0  0  0  0  0  0
    0.7907   -1.3007   -0.8631 C   0  0  2  0  0  0
    1.6872   -2.3863   -0.2047 C   0  0  0  0  0  0
    1.5786   -2.5487    1.3088 C   0  0  0  0  0  0
    2.1443    0.5956   -0.1443 C   0  0  0  0  0  0
    1.4268    1.8975   -0.3672 C   0  0  0  0  0  0
    1.2795    2.8574    0.7864 C   0  0  0  0  0  0
    1.5603    3.9993   -0.2193 C   0  0  0  0  0  0
    2.0260    2.9491   -1.2568 C   0  0  0  0  0  0
    0.2301    1.1041   -0.8331 C   0  0  0  0  0  0
   -4.3039   -0.0587    2.0018 H   0  0  0  0  0  0
   -2.9873    1.0934    1.7077 H   0  0  0  0  0  0
   -4.4712    1.1811    0.7457 H   0  0  0  0  0  0
   -2.7509    0.1089   -0.6272 H   0  0  0  0  0  0
   -3.9839   -1.0784   -0.2133 H   0  0  0  0  0  0
   -1.3220   -0.7627    1.2955 H   0  0  0  0  0  0
   -2.5934   -1.9162    1.6675 H   0  0  0  0  0  0
   -2.3838   -2.8913   -0.6287 H   0  0  0  0  0  0
   -1.0368   -3.1840    0.4227 H   0  0  0  0  0  0
   -0.4569   -2.6741   -1.9395 H   0  0  0  0  0  0
   -1.1604   -1.0887   -1.8057 H   0  0  0  0  0  0
    1.2506   -1.0999   -1.8439 H   0  0  0  0  0  0
    1.4860   -3.3512   -0.6823 H   0  0  0  0  0  0
    2.7370   -2.1542   -0.4315 H   0  0  0  0  0  0
    2.0543   -1.7195    1.8376 H   0  0  0  0  0  0
    2.0927   -3.4660    1.6169 H   0  0  0  0  0  0
    0.5474   -2.6145    1.6563 H   0  0  0  0  0  0
    2.7334    0.5141    0.7734 H   0  0  0  0  0  0
    2.7794    0.3016   -0.9911 H   0  0  0  0  0  0
    2.0531    2.7634    1.5584 H   0  0  0  0  0  0
    0.3001    2.9001    1.2696 H   0  0  0  0  0  0
    2.3271    4.7167    0.0912 H   0  0  0  0  0  0
    0.6621    4.5546   -0.5198 H   0  0  0  0  0  0
    3.1148    2.8952   -1.3609 H   0  0  0  0  0  0
    1.5825    3.0625   -2.2508 H   0  0  0  0  0  0
   -0.7416    1.4508   -0.4671 H   0  0  0  0  0  0
    0.1709    0.9814   -1.9217 H   0  0  0  0  0  0
    0.8616    0.0457   -0.1310 N   0  3  0  0  0  0
    0.4902   -0.0666    0.8196 H   0  0  0  0  0  0
  1  2  1  0  0  0
  1 15  1  0  0  0
  1 16  1  0  0  0
  1 17  1  0  0  0
  2  3  1  0  0  0
  2 18  1  0  0  0
  2 19  1  0  0  0
  3  4  1  0  0  0
  3 20  1  0  0  0
  3 21  1  0  0  0
  4  5  1  0  0  0
  4 22  1  0  0  0
  4 23  1  0  0  0
  5  6  1  0  0  0
  5 24  1  0  0  0
  5 25  1  0  0  0
  6  7  1  0  0  0
  6 26  1  0  0  0
  6 42  1  0  0  0
  7  8  1  0  0  0
  7 27  1  0  0  0
  7 28  1  0  0  0
  8 29  1  0  0  0
  8 30  1  0  0  0
  8 31  1  0  0  0
  9 10  1  0  0  0
  9 32  1  0  0  0
  9 33  1  0  0  0
  9 42  1  0  0  0
 10 11  1  0  0  0
 10 13  1  0  0  0
 10 14  1  0  0  0
 11 12  1  0  0  0
 11 34  1  0  0  0
 11 35  1  0  0  0
 12 13  1  0  0  0
 12 36  1  0  0  0
 12 37  1  0  0  0
 13 38  1  0  0  0
 13 39  1  0  0  0
 14 40  1  0  0  0
 14 41  1  0  0  0
 14 42  1  0  0  0
 42 43  1  0  0  0
M  CHG  1  42   1
M  END
> <energy>
41.3316

> <chiral flag>
0

> <version>
0

> <i_ionizer_Ion_state_n>
1

> <i_ionizer_Tot_Q>
1

> <s_ionizer_Ion_centers>
42

> <s_ionizer_Ion_types>
N5

> <s_ionizer_Ion_ctrs_in>
9

> <r_ionizer_Ionization_penalty>
0.00148639

> <r_ionizer_Ionization_penalty_charging>
0.00148639

> <r_ionizer_Ionization_penalty_neutral>
0

$$$$
ZINC001258442353
                    3D
 Structure written by MMmdl.
 45 46  0  0  1  0            999 V2000
   -4.2896   -1.0869    1.4911 C   0  0  0  0  0  0
   -4.4629   -1.2165   -0.0144 C   0  0  0  0  0  0
   -3.2514   -1.8115   -0.7394 C   0  0  0  0  0  0
   -1.8914   -1.1550   -0.4619 C   0  0  0  0  0  0
   -1.8261    0.3140   -0.8863 C   0  0  0  0  0  0
   -0.5724    1.0860   -0.3861 C   0  0  2  0  0  0
   -0.8837    2.6084   -0.3870 C   0  0  0  0  0  0
   -1.8274    3.0272    0.7340 C   0  0  0  0  0  0
    1.8335    1.4141   -0.6414 C   0  0  0  0  0  0
    2.6004    0.1575   -1.1105 C   0  0  1  0  0  0
    3.7759   -0.3852   -0.1971 C   0  0  0  0  0  0
    3.6078   -1.3740    0.7875 C   0  0  0  0  0  0
    4.6778   -1.8318    1.5543 C   0  0  0  0  0  0
    5.9226   -1.2866    1.3290 C   0  0  0  0  0  0
    6.1555   -0.3235    0.4164 N   0  0  0  0  0  0
    5.0892    0.0943   -0.3132 C   0  0  0  0  0  0
    1.1948   -0.5019   -1.0801 C   0  0  0  0  0  0
   -3.5222   -0.3467    1.7408 H   0  0  0  0  0  0
   -4.0163   -2.0498    1.9336 H   0  0  0  0  0  0
   -5.2242   -0.7535    1.9527 H   0  0  0  0  0  0
   -4.7182   -0.2385   -0.4350 H   0  0  0  0  0  0
   -5.3274   -1.8629   -0.2127 H   0  0  0  0  0  0
   -3.1757   -2.8758   -0.4749 H   0  0  0  0  0  0
   -3.4423   -1.7787   -1.8188 H   0  0  0  0  0  0
   -1.1414   -1.7324   -1.0105 H   0  0  0  0  0  0
   -1.6389   -1.2586    0.5982 H   0  0  0  0  0  0
   -2.7209    0.8165   -0.5174 H   0  0  0  0  0  0
   -1.8850    0.3764   -1.9805 H   0  0  0  0  0  0
   -0.3552    0.7823    0.6466 H   0  0  0  0  0  0
   -1.2967    2.9084   -1.3585 H   0  0  0  0  0  0
    0.0343    3.1928   -0.2477 H   0  0  0  0  0  0
   -1.9593    4.1135    0.7230 H   0  0  0  0  0  0
   -2.8183    2.5781    0.6429 H   0  0  0  0  0  0
   -1.4112    2.7470    1.7047 H   0  0  0  0  0  0
    1.8028    1.5366    0.4479 H   0  0  0  0  0  0
    2.1776    2.3521   -1.0867 H   0  0  0  0  0  0
    2.9525    0.2704   -2.1498 H   0  0  0  0  0  0
    2.6290   -1.8041    0.9688 H   0  0  0  0  0  0
    4.5338   -2.6021    2.3043 H   0  0  0  0  0  0
    6.7923   -1.6181    1.8890 H   0  0  0  0  0  0
    5.3305    0.8678   -1.0392 H   0  0  0  0  0  0
    0.9309   -1.0025   -0.1424 H   0  0  0  0  0  0
    1.0157   -1.1986   -1.9101 H   0  0  0  0  0  0
    0.7082    0.8102   -1.1972 N   0  3  1  0  0  0
    0.5522    1.0832   -2.1746 H   0  0  0  0  0  0
  1  2  1  0  0  0
  1 18  1  0  0  0
  1 19  1  0  0  0
  1 20  1  0  0  0
  2  3  1  0  0  0
  2 21  1  0  0  0
  2 22  1  0  0  0
  3  4  1  0  0  0
  3 23  1  0  0  0
  3 24  1  0  0  0
  4  5  1  0  0  0
  4 25  1  0  0  0
  4 26  1  0  0  0
  5  6  1  0  0  0
  5 27  1  0  0  0
  5 28  1  0  0  0
  6  7  1  0  0  0
  6 29  1  0  0  0
  6 44  1  0  0  0
  7  8  1  0  0  0
  7 30  1  0  0  0
  7 31  1  0  0  0
  8 32  1  0  0  0
  8 33  1  0  0  0
  8 34  1  0  0  0
  9 10  1  0  0  0
  9 35  1  0  0  0
  9 36  1  0  0  0
  9 44  1  0  0  0
 10 11  1  0  0  0
 10 17  1  0  0  0
 10 37  1  0  0  0
 11 12  2  0  0  0
 11 16  1  0  0  0
 12 13  1  0  0  0
 12 38  1  0  0  0
 13 14  2  0  0  0
 13 39  1  0  0  0
 14 15  1  0  0  0
 14 40  1  0  0  0
 15 16  2  0  0  0
 16 41  1  0  0  0
 17 42  1  0  0  0
 17 43  1  0  0  0
 17 44  1  0  0  0
 44 45  1  0  0  0
M  CHG  1  44   1
M  END
> <energy>
45.7742

> <chiral flag>
0

> <version>
0

> <i_ionizer_Ion_state_n>
1

> <i_ionizer_Tot_Q>
1

> <s_ionizer_Ion_centers>
44

> <s_ionizer_Ion_types>
N5

> <s_ionizer_Ion_ctrs_in>
9

> <r_ionizer_Ionization_penalty>
0.00889878

> <r_ionizer_Ionization_penalty_charging>
0.00148639

> <r_ionizer_Ionization_penalty_neutral>
0.00741239

$$$$
ZINC001258442354
                    3D
 Structure written by MMmdl.
 45 46  0  0  1  0            999 V2000
   -4.4037   -0.8165   -1.3922 C   0  0  0  0  0  0
   -4.3674   -1.8056   -0.2377 C   0  0  0  0  0  0
   -3.1323   -1.6337    0.6534 C   0  0  0  0  0  0
   -1.8107   -1.9950   -0.0351 C   0  0  0  0  0  0
   -0.5819   -1.6868    0.8468 C   0  0  0  0  0  0
    0.7082   -1.3022    0.0733 C   0  0  1  0  0  0
    1.2175   -2.4735   -0.7976 C   0  0  0  0  0  0
    1.8076   -3.6175    0.0167 C   0  0  0  0  0  0
    1.7821    0.5532   -1.1110 C   0  0  0  0  0  0
    1.1382    1.9183   -0.7507 C   0  0  2  0  0  0
    1.9530    2.9595    0.1280 C   0  0  0  0  0  0
    1.7300    4.3500    0.0794 C   0  0  0  0  0  0
    2.4681    5.2314    0.8688 C   0  0  0  0  0  0
    3.4258    4.7081    1.7174 C   0  0  0  0  0  0
    3.6782    3.3896    1.8249 N   0  0  0  0  0  0
    2.9423    2.5695    1.0389 C   0  0  0  0  0  0
    0.0684    1.0713   -0.0205 C   0  0  0  0  0  0
   -3.6085   -0.9995   -2.1257 H   0  0  0  0  0  0
   -5.3632   -0.8916   -1.9142 H   0  0  0  0  0  0
   -4.3079    0.2098   -1.0280 H   0  0  0  0  0  0
   -5.2596   -1.6446    0.3793 H   0  0  0  0  0  0
   -4.4210   -2.8322   -0.6174 H   0  0  0  0  0  0
   -3.2541   -2.2411    1.5556 H   0  0  0  0  0  0
   -3.0947   -0.5925    0.9910 H   0  0  0  0  0  0
   -1.8163   -3.0585   -0.3008 H   0  0  0  0  0  0
   -1.7396   -1.4433   -0.9721 H   0  0  0  0  0  0
   -0.3714   -2.5569    1.4747 H   0  0  0  0  0  0
   -0.8268   -0.8867    1.5582 H   0  0  0  0  0  0
    1.4752   -1.0818    0.8292 H   0  0  0  0  0  0
    0.4095   -2.8606   -1.4284 H   0  0  0  0  0  0
    2.0045   -2.1220   -1.4774 H   0  0  0  0  0  0
    1.0379   -4.1850    0.5459 H   0  0  0  0  0  0
    2.3301   -4.3154   -0.6457 H   0  0  0  0  0  0
    2.5281   -3.2364    0.7449 H   0  0  0  0  0  0
    2.0901    0.4598   -2.1573 H   0  0  0  0  0  0
    2.6309    0.2488   -0.4960 H   0  0  0  0  0  0
    0.7207    2.3979   -1.6518 H   0  0  0  0  0  0
    0.9564    4.7477   -0.5774 H   0  0  0  0  0  0
    2.2958    6.3065    0.8239 H   0  0  0  0  0  0
    4.0296    5.3465    2.3524 H   0  0  0  0  0  0
    3.1772    1.5226    1.1836 H   0  0  0  0  0  0
    0.2232    1.0253    1.0644 H   0  0  0  0  0  0
   -0.9655    1.3783   -0.2177 H   0  0  0  0  0  0
    0.5534   -0.0203   -0.7604 N   0  3  2  0  0  0
   -0.0304   -0.2221   -1.5806 H   0  0  0  0  0  0
  1  2  1  0  0  0
  1 18  1  0  0  0
  1 19  1  0  0  0
  1 20  1  0  0  0
  2  3  1  0  0  0
  2 21  1  0  0  0
  2 22  1  0  0  0
  3  4  1  0  0  0
  3 23  1  0  0  0
  3 24  1  0  0  0
  4  5  1  0  0  0
  4 25  1  0  0  0
  4 26  1  0  0  0
  5  6  1  0  0  0
  5 27  1  0  0  0
  5 28  1  0  0  0
  6  7  1  0  0  0
  6 29  1  0  0  0
  6 44  1  0  0  0
  7  8  1  0  0  0
  7 30  1  0  0  0
  7 31  1  0  0  0
  8 32  1  0  0  0
  8 33  1  0  0  0
  8 34  1  0  0  0
  9 10  1  0  0  0
  9 35  1  0  0  0
  9 36  1  0  0  0
  9 44  1  0  0  0
 10 11  1  0  0  0
 10 17  1  0  0  0
 10 37  1  0  0  0
 11 12  2  0  0  0
 11 16  1  0  0  0
 12 13  1  0  0  0
 12 38  1  0  0  0
 13 14  2  0  0  0
 13 39  1  0  0  0
 14 15  1  0  0  0
 14 40  1  0  0  0
 15 16  2  0  0  0
 16 41  1  0  0  0
 17 42  1  0  0  0
 17 43  1  0  0  0
 17 44  1  0  0  0
 44 45  1  0  0  0
M  CHG  1  44   1
M  END
> <energy>
45.1856

> <chiral flag>
0

> <version>
0

> <i_ionizer_Ion_state_n>
1

> <i_ionizer_Tot_Q>
1

> <s_ionizer_Ion_centers>
44

> <s_ionizer_Ion_types>
N5

> <s_ionizer_Ion_ctrs_in>
9

> <r_ionizer_Ionization_penalty>
0.00889878

> <r_ionizer_Ionization_penalty_charging>
0.00148639

> <r_ionizer_Ionization_penalty_neutral>
0.00741239

$$$$
ZINC001258442922
                    3D
 Structure written by MMmdl.
 49 49  0  0  1  0            999 V2000
   -3.7857    1.6841   -1.3942 C   0  0  0  0  0  0
   -4.1048    1.2249    0.0212 C   0  0  0  0  0  0
   -4.0106   -0.2918    0.2198 C   0  0  0  0  0  0
   -2.6735   -0.9489   -0.1401 C   0  0  0  0  0  0
   -1.4917   -0.4132    0.6711 C   0  0  0  0  0  0
   -0.1680   -1.1719    0.3717 C   0  0  2  0  0  0
   -0.1039   -2.5080    1.1539 C   0  0  0  0  0  0
    1.0992   -3.3734    0.7851 C   0  0  0  0  0  0
    1.1629    0.1752    1.9810 C   0  0  0  0  0  0
    1.9112    1.4839    1.8305 C   0  0  0  0  0  0
    1.4655    1.9899    0.4739 C   0  0  0  0  0  0
    1.2612    0.7265   -0.3633 C   0  0  1  0  0  0
    2.4392    0.3789   -1.3403 C   0  0  0  0  0  0
    3.8230    0.3128   -0.6816 C   0  0  0  0  0  0
    2.4776    1.3492   -2.5254 C   0  0  0  0  0  0
    2.1820   -0.9261   -1.8876 O   0  0  0  0  0  0
   -4.0240    2.7476   -1.5070 H   0  0  0  0  0  0
   -4.3704    1.1279   -2.1332 H   0  0  0  0  0  0
   -2.7228    1.5524   -1.6220 H   0  0  0  0  0  0
   -5.1293    1.5345    0.2644 H   0  0  0  0  0  0
   -3.4509    1.7489    0.7297 H   0  0  0  0  0  0
   -4.2426   -0.5137    1.2683 H   0  0  0  0  0  0
   -4.7974   -0.7723   -0.3759 H   0  0  0  0  0  0
   -2.4724   -0.8152   -1.2092 H   0  0  0  0  0  0
   -2.7773   -2.0285    0.0200 H   0  0  0  0  0  0
   -1.3753    0.6499    0.4361 H   0  0  0  0  0  0
   -1.7287   -0.4727    1.7387 H   0  0  0  0  0  0
   -0.1714   -1.4400   -0.6932 H   0  0  0  0  0  0
   -0.0850   -2.3185    2.2354 H   0  0  0  0  0  0
   -1.0080   -3.0963    0.9550 H   0  0  0  0  0  0
    1.1209   -3.5814   -0.2905 H   0  0  0  0  0  0
    1.0483   -4.3312    1.3136 H   0  0  0  0  0  0
    2.0444   -2.8983    1.0597 H   0  0  0  0  0  0
    0.1904    0.3833    2.4379 H   0  0  0  0  0  0
    1.7031   -0.5134    2.6396 H   0  0  0  0  0  0
    2.9932    1.3184    1.8474 H   0  0  0  0  0  0
    1.6679    2.1933    2.6278 H   0  0  0  0  0  0
    2.1717    2.7053    0.0506 H   0  0  0  0  0  0
    0.5050    2.5114    0.5865 H   0  0  0  0  0  0
    0.3658    0.8604   -0.9818 H   0  0  0  0  0  0
    4.5744   -0.0282   -1.4047 H   0  0  0  0  0  0
    4.1454    1.2846   -0.2991 H   0  0  0  0  0  0
    3.8411   -0.4148    0.1360 H   0  0  0  0  0  0
    1.5170    1.3538   -3.0552 H   0  0  0  0  0  0
    2.7082    2.3697   -2.2091 H   0  0  0  0  0  0
    3.2272    1.0365   -3.2612 H   0  0  0  0  0  0
    1.9928   -1.4736   -1.1019 H   0  0  0  0  0  0
    1.1151   -0.3910    0.6145 N   0  3  2  0  0  0
    1.9065   -1.0349    0.4993 H   0  0  0  0  0  0
  1  2  1  0  0  0
  1 17  1  0  0  0
  1 18  1  0  0  0
  1 19  1  0  0  0
  2  3  1  0  0  0
  2 20  1  0  0  0
  2 21  1  0  0  0
  3  4  1  0  0  0
  3 22  1  0  0  0
  3 23  1  0  0  0
  4  5  1  0  0  0
  4 24  1  0  0  0
  4 25  1  0  0  0
  5  6  1  0  0  0
  5 26  1  0  0  0
  5 27  1  0  0  0
  6  7  1  0  0  0
  6 28  1  0  0  0
  6 48  1  0  0  0
  7  8  1  0  0  0
  7 29  1  0  0  0
  7 30  1  0  0  0
  8 31  1  0  0  0
  8 32  1  0  0  0
  8 33  1  0  0  0
  9 10  1  0  0  0
  9 34  1  0  0  0
  9 35  1  0  0  0
  9 48  1  0  0  0
 10 11  1  0  0  0
 10 36  1  0  0  0
 10 37  1  0  0  0
 11 12  1  0  0  0
 11 38  1  0  0  0
 11 39  1  0  0  0
 12 13  1  0  0  0
 12 40  1  0  0  0
 12 48  1  0  0  0
 13 14  1  0  0  0
 13 15  1  0  0  0
 13 16  1  0  0  0
 14 41  1  0  0  0
 14 42  1  0  0  0
 14 43  1  0  0  0
 15 44  1  0  0  0
 15 45  1  0  0  0
 15 46  1  0  0  0
 16 47  1  0  0  0
 48 49  1  0  0  0
M  CHG  1  48   1
M  END
> <energy>
41.313

> <chiral flag>
0

> <version>
0

> <i_ionizer_Ion_state_n>
1

> <i_ionizer_Tot_Q>
1

> <s_ionizer_Ion_centers>
48

> <s_ionizer_Ion_types>
N5

> <s_ionizer_Ion_ctrs_in>
9

> <r_ionizer_Ionization_penalty>
0.00148639

> <r_ionizer_Ionization_penalty_charging>
0.00148639

> <r_ionizer_Ionization_penalty_neutral>
0

$$$$
ZINC001258442924
                    3D
 Structure written by MMmdl.
 49 49  0  0  1  0            999 V2000
   -5.1450   -0.2365    1.6848 C   0  0  0  0  0  0
   -3.9847    0.5550    1.0985 C   0  0  0  0  0  0
   -3.1596   -0.3001    0.1371 C   0  0  0  0  0  0
   -1.9633    0.4746   -0.4207 C   0  0  0  0  0  0
   -0.9886   -0.4391   -1.1833 C   0  0  0  0  0  0
    0.0301   -1.1771   -0.2809 C   0  0  1  0  0  0
    0.7194   -2.3437   -1.0383 C   0  0  0  0  0  0
   -0.1794   -3.5623   -1.2492 C   0  0  0  0  0  0
    0.8102   -0.2737    1.8312 C   0  0  0  0  0  0
    1.7633    0.7883    2.3130 C   0  0  0  0  0  0
    1.6523    1.8308    1.2220 C   0  0  0  0  0  0
    1.3757    1.0417   -0.0767 C   0  0  1  0  0  0
    2.5476    1.1765   -1.1149 C   0  0  0  0  0  0
    3.8628    0.5587   -0.6350 C   0  0  0  0  0  0
    2.7908    2.6394   -1.5144 C   0  0  0  0  0  0
    2.1824    0.5237   -2.3378 O   0  0  0  0  0  0
   -4.8077   -1.2011    2.0801 H   0  0  0  0  0  0
   -5.6117    0.3249    2.5000 H   0  0  0  0  0  0
   -5.9087   -0.4261    0.9234 H   0  0  0  0  0  0
   -4.3696    1.4399    0.5798 H   0  0  0  0  0  0
   -3.3463    0.9135    1.9160 H   0  0  0  0  0  0
   -2.8173   -1.1981    0.6626 H   0  0  0  0  0  0
   -3.7901   -0.6381   -0.6956 H   0  0  0  0  0  0
   -1.4581    1.0021    0.3946 H   0  0  0  0  0  0
   -2.3336    1.2461   -1.1085 H   0  0  0  0  0  0
   -1.5776   -1.1578   -1.7671 H   0  0  0  0  0  0
   -0.4465    0.1487   -1.9316 H   0  0  0  0  0  0
   -0.5542   -1.6771    0.5060 H   0  0  0  0  0  0
    1.0695   -2.0218   -2.0216 H   0  0  0  0  0  0
    1.6028   -2.6833   -0.4819 H   0  0  0  0  0  0
    0.3807   -4.3573   -1.7569 H   0  0  0  0  0  0
   -0.5319   -3.9620   -0.2931 H   0  0  0  0  0  0
   -1.0495   -3.3232   -1.8667 H   0  0  0  0  0  0
   -0.2193    0.0435    2.0392 H   0  0  0  0  0  0
    0.9856   -1.2315    2.3327 H   0  0  0  0  0  0
    1.4848    1.1909    3.2908 H   0  0  0  0  0  0
    2.7876    0.4014    2.3758 H   0  0  0  0  0  0
    2.5420    2.4628    1.1993 H   0  0  0  0  0  0
    0.7939    2.4819    1.4367 H   0  0  0  0  0  0
    0.4972    1.5047   -0.5312 H   0  0  0  0  0  0
    4.6353    0.6519   -1.4065 H   0  0  0  0  0  0
    4.2340    1.0384    0.2737 H   0  0  0  0  0  0
    3.7549   -0.5133   -0.4483 H   0  0  0  0  0  0
    3.1616    3.2560   -0.6918 H   0  0  0  0  0  0
    1.8707    3.0922   -1.8974 H   0  0  0  0  0  0
    3.5258    2.7023   -2.3253 H   0  0  0  0  0  0
    2.1054   -0.4185   -2.1056 H   0  0  0  0  0  0
    1.1410   -0.3786    0.4298 N   0  3  2  0  0  0
    2.0179   -0.9020    0.3228 H   0  0  0  0  0  0
  1  2  1  0  0  0
  1 17  1  0  0  0
  1 18  1  0  0  0
  1 19  1  0  0  0
  2  3  1  0  0  0
  2 20  1  0  0  0
  2 21  1  0  0  0
  3  4  1  0  0  0
  3 22  1  0  0  0
  3 23  1  0  0  0
  4  5  1  0  0  0
  4 24  1  0  0  0
  4 25  1  0  0  0
  5  6  1  0  0  0
  5 26  1  0  0  0
  5 27  1  0  0  0
  6  7  1  0  0  0
  6 28  1  0  0  0
  6 48  1  0  0  0
  7  8  1  0  0  0
  7 29  1  0  0  0
  7 30  1  0  0  0
  8 31  1  0  0  0
  8 32  1  0  0  0
  8 33  1  0  0  0
  9 10  1  0  0  0
  9 34  1  0  0  0
  9 35  1  0  0  0
  9 48  1  0  0  0
 10 11  1  0  0  0
 10 36  1  0  0  0
 10 37  1  0  0  0
 11 12  1  0  0  0
 11 38  1  0  0  0
 11 39  1  0  0  0
 12 13  1  0  0  0
 12 40  1  0  0  0
 12 48  1  0  0  0
 13 14  1  0  0  0
 13 15  1  0  0  0
 13 16  1  0  0  0
 14 41  1  0  0  0
 14 42  1  0  0  0
 14 43  1  0  0  0
 15 44  1  0  0  0
 15 45  1  0  0  0
 15 46  1  0  0  0
 16 47  1  0  0  0
 48 49  1  0  0  0
M  CHG  1  48   1
M  END
> <energy>
49.8689

> <chiral flag>
0

> <version>
0

> <i_ionizer_Ion_state_n>
1

> <i_ionizer_Tot_Q>
1

> <s_ionizer_Ion_centers>
48

> <s_ionizer_Ion_types>
N5

> <s_ionizer_Ion_ctrs_in>
9

> <r_ionizer_Ionization_penalty>
0.00148639

> <r_ionizer_Ionization_penalty_charging>
0.00148639

> <r_ionizer_Ionization_penalty_neutral>
0

$$$$
ZINC001258442926
                    3D
 Structure written by MMmdl.
 49 49  0  0  1  0            999 V2000
   -3.9856    2.6586    0.3324 C   0  0  0  0  0  0
   -3.6950    1.3005   -0.2912 C   0  0  0  0  0  0
   -2.8435    0.4299    0.6385 C   0  0  0  0  0  0
   -2.5011   -0.9399    0.0389 C   0  0  0  0  0  0
   -1.4520   -0.8789   -1.0826 C   0  0  0  0  0  0
   -0.0226   -1.3677   -0.7311 C   0  0  2  0  0  0
   -0.0116   -2.9019   -0.5259 C   0  0  0  0  0  0
    1.3818   -3.5099   -0.4604 C   0  0  0  0  0  0
    0.4498   -0.9265    1.7074 C   0  0  0  0  0  0
    1.8475   -0.8073    2.2901 C   0  0  0  0  0  0
    2.4814    0.2750    1.4463 C   0  0  0  0  0  0
    1.9229    0.0007    0.0440 C   0  0  2  0  0  0
    1.9945    1.2478   -0.9032 C   0  0  0  0  0  0
    3.4250    1.7957   -0.9808 C   0  0  0  0  0  0
    1.0397    2.3772   -0.4859 C   0  0  0  0  0  0
    1.6712    0.8311   -2.2420 O   0  0  0  0  0  0
   -3.0585    3.2119    0.5139 H   0  0  0  0  0  0
   -4.5145    2.5550    1.2852 H   0  0  0  0  0  0
   -4.6107    3.2588   -0.3363 H   0  0  0  0  0  0
   -4.6441    0.7939   -0.5021 H   0  0  0  0  0  0
   -3.1919    1.4553   -1.2520 H   0  0  0  0  0  0
   -1.9247    0.9615    0.9080 H   0  0  0  0  0  0
   -3.3949    0.2688    1.5724 H   0  0  0  0  0  0
   -3.4205   -1.3845   -0.3621 H   0  0  0  0  0  0
   -2.1764   -1.6086    0.8432 H   0  0  0  0  0  0
   -1.3809    0.1371   -1.4888 H   0  0  0  0  0  0
   -1.8162   -1.4930   -1.9176 H   0  0  0  0  0  0
    0.5392   -1.2121   -1.6573 H   0  0  0  0  0  0
   -0.5296   -3.3693   -1.3740 H   0  0  0  0  0  0
   -0.5831   -3.2019    0.3566 H   0  0  0  0  0  0
    1.9583   -3.2669   -1.3583 H   0  0  0  0  0  0
    1.9372   -3.1569    0.4092 H   0  0  0  0  0  0
    1.3118   -4.6012   -0.3879 H   0  0  0  0  0  0
    0.0498   -1.9265    1.8839 H   0  0  0  0  0  0
   -0.2154   -0.2212    2.2218 H   0  0  0  0  0  0
    2.4033   -1.7433    2.1671 H   0  0  0  0  0  0
    1.8355   -0.5549    3.3544 H   0  0  0  0  0  0
    3.5744    0.2144    1.4759 H   0  0  0  0  0  0
    2.1850    1.2567    1.8304 H   0  0  0  0  0  0
    2.5175   -0.8118   -0.3974 H   0  0  0  0  0  0
    3.7670    2.2001   -0.0219 H   0  0  0  0  0  0
    4.1245    1.0138   -1.3001 H   0  0  0  0  0  0
    3.4936    2.5950   -1.7302 H   0  0  0  0  0  0
   -0.0030    2.0424   -0.4999 H   0  0  0  0  0  0
    1.0997    3.2146   -1.1916 H   0  0  0  0  0  0
    1.2659    2.7662    0.5110 H   0  0  0  0  0  0
    1.1438    1.5298   -2.6616 H   0  0  0  0  0  0
    0.5214   -0.3951    0.3198 N   0  3  1  0  0  0
   -0.0602    0.4500    0.2782 H   0  0  0  0  0  0
  1  2  1  0  0  0
  1 17  1  0  0  0
  1 18  1  0  0  0
  1 19  1  0  0  0
  2  3  1  0  0  0
  2 20  1  0  0  0
  2 21  1  0  0  0
  3  4  1  0  0  0
  3 22  1  0  0  0
  3 23  1  0  0  0
  4  5  1  0  0  0
  4 24  1  0  0  0
  4 25  1  0  0  0
  5  6  1  0  0  0
  5 26  1  0  0  0
  5 27  1  0  0  0
  6  7  1  0  0  0
  6 28  1  0  0  0
  6 48  1  0  0  0
  7  8  1  0  0  0
  7 29  1  0  0  0
  7 30  1  0  0  0
  8 31  1  0  0  0
  8 32  1  0  0  0
  8 33  1  0  0  0
  9 10  1  0  0  0
  9 34  1  0  0  0
  9 35  1  0  0  0
  9 48  1  0  0  0
 10 11  1  0  0  0
 10 36  1  0  0  0
 10 37  1  0  0  0
 11 12  1  0  0  0
 11 38  1  0  0  0
 11 39  1  0  0  0
 12 13  1  0  0  0
 12 40  1  0  0  0
 12 48  1  0  0  0
 13 14  1  0  0  0
 13 15  1  0  0  0
 13 16  1  0  0  0
 14 41  1  0  0  0
 14 42  1  0  0  0
 14 43  1  0  0  0
 15 44  1  0  0  0
 15 45  1  0  0  0
 15 46  1  0  0  0
 16 47  1  0  0  0
 48 49  1  0  0  0
M  CHG  1  48   1
M  END
> <energy>
51.605

> <chiral flag>
0

> <version>
0

> <i_ionizer_Ion_state_n>
1

> <i_ionizer_Tot_Q>
1

> <s_ionizer_Ion_centers>
48

> <s_ionizer_Ion_types>
N5

> <s_ionizer_Ion_ctrs_in>
9

> <r_ionizer_Ionization_penalty>
0.00148639

> <r_ionizer_Ionization_penalty_charging>
0.00148639

> <r_ionizer_Ionization_penalty_neutral>
0

$$$$
ZINC001258442927
                    3D
 Structure written by MMmdl.
 49 49  0  0  1  0            999 V2000
   -3.4964    3.6710    0.2885 C   0  0  0  0  0  0
   -2.9219    2.6226   -0.6520 C   0  0  0  0  0  0
   -2.8327    1.2579    0.0358 C   0  0  0  0  0  0
   -2.2368    0.1825   -0.8820 C   0  0  0  0  0  0
   -1.8035   -1.0650   -0.1002 C   0  0  0  0  0  0
   -0.3928   -0.9755    0.5472 C   0  0  1  0  0  0
   -0.2663   -2.0332    1.6806 C   0  0  0  0  0  0
   -0.3168   -3.4912    1.2386 C   0  0  0  0  0  0
    0.5874   -1.7806   -1.5917 C   0  0  0  0  0  0
    1.9852   -1.7705   -2.1664 C   0  0  0  0  0  0
    2.5151   -0.3906   -1.7970 C   0  0  0  0  0  0
    1.6058    0.0972   -0.6362 C   0  0  2  0  0  0
    2.4392    0.8216    0.4799 C   0  0  0  0  0  0
    3.3194   -0.1259    1.3034 C   0  0  0  0  0  0
    1.5589    1.6523    1.4202 C   0  0  0  0  0  0
    3.3374    1.7606   -0.1463 O   0  0  0  0  0  0
   -3.4743    4.6556   -0.1860 H   0  0  0  0  0  0
   -2.9235    3.7209    1.2196 H   0  0  0  0  0  0
   -4.5345    3.4377    0.5407 H   0  0  0  0  0  0
   -3.5433    2.5553   -1.5529 H   0  0  0  0  0  0
   -1.9228    2.9350   -0.9735 H   0  0  0  0  0  0
   -2.2385    1.3545    0.9525 H   0  0  0  0  0  0
   -3.8386    0.9358    0.3475 H   0  0  0  0  0  0
   -1.4081    0.5862   -1.4690 H   0  0  0  0  0  0
   -3.0103   -0.1121   -1.6022 H   0  0  0  0  0  0
   -2.5507   -1.2514    0.6851 H   0  0  0  0  0  0
   -1.8556   -1.9325   -0.7651 H   0  0  0  0  0  0
   -0.3719   -0.0149    1.0569 H   0  0  0  0  0  0
    0.6710   -1.8718    2.2293 H   0  0  0  0  0  0
   -1.0646   -1.8619    2.4141 H   0  0  0  0  0  0
    0.5658   -3.7607    0.6549 H   0  0  0  0  0  0
   -0.3491   -4.1402    2.1200 H   0  0  0  0  0  0
   -1.2027   -3.7075    0.6368 H   0  0  0  0  0  0
    0.2194   -2.8030   -1.4904 H   0  0  0  0  0  0
   -0.0902   -1.2311   -2.2562 H   0  0  0  0  0  0
    2.0084   -1.9586   -3.2441 H   0  0  0  0  0  0
    2.5897   -2.5418   -1.6713 H   0  0  0  0  0  0
    2.4294    0.2975   -2.6488 H   0  0  0  0  0  0
    3.5762   -0.4692   -1.5360 H   0  0  0  0  0  0
    0.9373    0.8485   -1.0835 H   0  0  0  0  0  0
    2.7567   -0.9645    1.7199 H   0  0  0  0  0  0
    3.7782    0.4132    2.1389 H   0  0  0  0  0  0
    4.1485   -0.5195    0.7105 H   0  0  0  0  0  0
    0.8609    2.2686    0.8425 H   0  0  0  0  0  0
    2.1651    2.3544    2.0050 H   0  0  0  0  0  0
    1.0010    1.0405    2.1316 H   0  0  0  0  0  0
    2.7911    2.4060   -0.6394 H   0  0  0  0  0  0
    0.8802   -1.1575   -0.3095 N   0  3  1  0  0  0
    1.5153   -1.7671    0.2190 H   0  0  0  0  0  0
  1  2  1  0  0  0
  1 17  1  0  0  0
  1 18  1  0  0  0
  1 19  1  0  0  0
  2  3  1  0  0  0
  2 20  1  0  0  0
  2 21  1  0  0  0
  3  4  1  0  0  0
  3 22  1  0  0  0
  3 23  1  0  0  0
  4  5  1  0  0  0
  4 24  1  0  0  0
  4 25  1  0  0  0
  5  6  1  0  0  0
  5 26  1  0  0  0
  5 27  1  0  0  0
  6  7  1  0  0  0
  6 28  1  0  0  0
  6 48  1  0  0  0
  7  8  1  0  0  0
  7 29  1  0  0  0
  7 30  1  0  0  0
  8 31  1  0  0  0
  8 32  1  0  0  0
  8 33  1  0  0  0
  9 10  1  0  0  0
  9 34  1  0  0  0
  9 35  1  0  0  0
  9 48  1  0  0  0
 10 11  1  0  0  0
 10 36  1  0  0  0
 10 37  1  0  0  0
 11 12  1  0  0  0
 11 38  1  0  0  0
 11 39  1  0  0  0
 12 13  1  0  0  0
 12 40  1  0  0  0
 12 48  1  0  0  0
 13 14  1  0  0  0
 13 15  1  0  0  0
 13 16  1  0  0  0
 14 41  1  0  0  0
 14 42  1  0  0  0
 14 43  1  0  0  0
 15 44  1  0  0  0
 15 45  1  0  0  0
 15 46  1  0  0  0
 16 47  1  0  0  0
 48 49  1  0  0  0
M  CHG  1  48   1
M  END
> <energy>
51.646

> <chiral flag>
0

> <version>
0

> <i_ionizer_Ion_state_n>
1

> <i_ionizer_Tot_Q>
1

> <s_ionizer_Ion_centers>
48

> <s_ionizer_Ion_types>
N5

> <s_ionizer_Ion_ctrs_in>
9

> <r_ionizer_Ionization_penalty>
0.00148639

> <r_ionizer_Ionization_penalty_charging>
0.00148639

> <r_ionizer_Ionization_penalty_neutral>
0

$$$$
ZINC001258442966
                    3D
 Structure written by MMmdl.
 41 41  0  0  1  0            999 V2000
   -3.2174    1.7046    1.6456 C   0  0  0  0  0  0
   -3.1103    2.3571    0.2737 C   0  0  0  0  0  0
   -2.4201    1.4548   -0.7514 C   0  0  0  0  0  0
   -0.8903    1.4822   -0.6529 C   0  0  0  0  0  0
   -0.2419    0.3239   -1.4270 C   0  0  0  0  0  0
   -0.1797   -0.9976   -0.6091 C   0  0  1  0  0  0
    0.0117   -2.1903   -1.5789 C   0  0  0  0  0  0
    0.0322   -3.5625   -0.9254 C   0  0  0  0  0  0
    0.4372   -1.5264    1.7188 C   0  0  0  0  0  0
    2.2112   -0.9661    0.1362 C   0  0  0  0  0  0
    2.8971    0.3570    0.3442 C   0  0  0  0  0  0
    3.0638    1.0278    1.5418 C   0  0  0  0  0  0
    3.9100    2.4955    1.2934 S   0  0  0  0  0  0
    4.0039    2.1333   -0.3773 C   0  0  0  0  0  0
    3.4570    1.0022   -0.7578 N   0  0  0  0  0  0
   -3.7741    2.3537    2.3305 H   0  0  0  0  0  0
   -2.2315    1.5173    2.0816 H   0  0  0  0  0  0
   -3.7513    0.7507    1.5805 H   0  0  0  0  0  0
   -4.1265    2.5739   -0.0763 H   0  0  0  0  0  0
   -2.5907    3.3199    0.3578 H   0  0  0  0  0  0
   -2.8028    0.4341   -0.6537 H   0  0  0  0  0  0
   -2.7021    1.7974   -1.7541 H   0  0  0  0  0  0
   -0.5376    2.4280   -1.0807 H   0  0  0  0  0  0
   -0.5624    1.4822    0.3913 H   0  0  0  0  0  0
   -0.7936    0.1666   -2.3625 H   0  0  0  0  0  0
    0.7695    0.6182   -1.7289 H   0  0  0  0  0  0
   -1.1739   -1.1273   -0.1609 H   0  0  0  0  0  0
    0.9119   -2.0645   -2.1901 H   0  0  0  0  0  0
   -0.8277   -2.1835   -2.2864 H   0  0  0  0  0  0
    0.9352   -3.7143   -0.3280 H   0  0  0  0  0  0
    0.0178   -4.3396   -1.6966 H   0  0  0  0  0  0
   -0.8419   -3.7084   -0.2838 H   0  0  0  0  0  0
    1.1406   -1.2793    2.5218 H   0  0  0  0  0  0
    0.4231   -2.6144    1.6180 H   0  0  0  0  0  0
   -0.5475   -1.1973    2.0672 H   0  0  0  0  0  0
    2.3741   -1.2731   -0.9025 H   0  0  0  0  0  0
    2.7137   -1.7299    0.7448 H   0  0  0  0  0  0
    2.7287    0.7333    2.5255 H   0  0  0  0  0  0
    4.4913    2.8028   -1.0738 H   0  0  0  0  0  0
    0.7837   -0.7302    0.5256 N   0  3  1  0  0  0
    0.6931    0.2615    0.7757 H   0  0  0  0  0  0
  1  2  1  0  0  0
  1 16  1  0  0  0
  1 17  1  0  0  0
  1 18  1  0  0  0
  2  3  1  0  0  0
  2 19  1  0  0  0
  2 20  1  0  0  0
  3  4  1  0  0  0
  3 21  1  0  0  0
  3 22  1  0  0  0
  4  5  1  0  0  0
  4 23  1  0  0  0
  4 24  1  0  0  0
  5  6  1  0  0  0
  5 25  1  0  0  0
  5 26  1  0  0  0
  6  7  1  0  0  0
  6 27  1  0  0  0
  6 40  1  0  0  0
  7  8  1  0  0  0
  7 28  1  0  0  0
  7 29  1  0  0  0
  8 30  1  0  0  0
  8 31  1  0  0  0
  8 32  1  0  0  0
  9 33  1  0  0  0
  9 34  1  0  0  0
  9 35  1  0  0  0
  9 40  1  0  0  0
 10 11  1  0  0  0
 10 36  1  0  0  0
 10 37  1  0  0  0
 10 40  1  0  0  0
 11 12  2  0  0  0
 11 15  1  0  0  0
 12 13  1  0  0  0
 12 38  1  0  0  0
 13 14  1  0  0  0
 14 15  2  0  0  0
 14 39  1  0  0  0
 40 41  1  0  0  0
M  CHG  1  40   1
M  END
> <energy>
35.2928

> <chiral flag>
0

> <version>
0

> <i_ionizer_Ion_state_n>
1

> <i_ionizer_Tot_Q>
1

> <s_ionizer_Ion_centers>
40

> <s_ionizer_Ion_types>
N5

> <s_ionizer_Ion_ctrs_in>
9

> <r_ionizer_Ionization_penalty>
0.00148639

> <r_ionizer_Ionization_penalty_charging>
0.00148639

> <r_ionizer_Ionization_penalty_neutral>
0

$$$$
ZINC001258442967
                    3D
 Structure written by MMmdl.
 41 41  0  0  1  0            999 V2000
   -3.7453    2.1070   -1.0052 C   0  0  0  0  0  0
   -3.7005    1.4298    0.3580 C   0  0  0  0  0  0
   -3.0233    0.0553    0.3380 C   0  0  0  0  0  0
   -1.5198    0.1234    0.0469 C   0  0  0  0  0  0
   -0.8759   -1.2739    0.0321 C   0  0  0  0  0  0
    0.6361   -1.2471   -0.3165 C   0  0  2  0  0  0
    1.2189   -2.6759   -0.4321 C   0  0  0  0  0  0
    0.7158   -3.4427   -1.6498 C   0  0  0  0  0  0
    1.5528   -0.9323    1.9726 C   0  0  0  0  0  0
    2.6458    0.1110    0.0696 C   0  0  0  0  0  0
    2.6528    1.6105    0.1739 C   0  0  0  0  0  0
    3.2379    2.3603    1.1816 C   0  0  0  0  0  0
    3.0004    4.0340    0.8901 S   0  0  0  0  0  0
    2.1557    3.6410   -0.5486 C   0  0  0  0  0  0
    2.0481    2.3624   -0.8306 N   0  0  0  0  0  0
   -4.3313    3.0311   -0.9445 H   0  0  0  0  0  0
   -4.2138    1.4592   -1.7531 H   0  0  0  0  0  0
   -2.7438    2.3733   -1.3569 H   0  0  0  0  0  0
   -4.7313    1.3045    0.7121 H   0  0  0  0  0  0
   -3.1941    2.0850    1.0760 H   0  0  0  0  0  0
   -3.1728   -0.4155    1.3177 H   0  0  0  0  0  0
   -3.5203   -0.5867   -0.3982 H   0  0  0  0  0  0
   -1.0431    0.7526    0.8064 H   0  0  0  0  0  0
   -1.3496    0.5990   -0.9254 H   0  0  0  0  0  0
   -1.4062   -1.8766   -0.7136 H   0  0  0  0  0  0
   -1.0418   -1.7660    0.9974 H   0  0  0  0  0  0
    0.6968   -0.7782   -1.3088 H   0  0  0  0  0  0
    2.3117   -2.6264   -0.5082 H   0  0  0  0  0  0
    0.9871   -3.2564    0.4693 H   0  0  0  0  0  0
   -0.3553   -3.6525   -1.5881 H   0  0  0  0  0  0
    1.2332   -4.4051   -1.7248 H   0  0  0  0  0  0
    0.9079   -2.8846   -2.5727 H   0  0  0  0  0  0
    0.5900   -1.1846    2.4276 H   0  0  0  0  0  0
    2.1882   -1.8247    1.9901 H   0  0  0  0  0  0
    2.0086   -0.1858    2.6333 H   0  0  0  0  0  0
    3.5244   -0.3078    0.5779 H   0  0  0  0  0  0
    2.7669   -0.1430   -0.9914 H   0  0  0  0  0  0
    3.7682    2.0105    2.0555 H   0  0  0  0  0  0
    1.7377    4.4073   -1.1876 H   0  0  0  0  0  0
    1.3453   -0.3170    0.6372 N   0  3  1  0  0  0
    0.7576    0.5158    0.7610 H   0  0  0  0  0  0
  1  2  1  0  0  0
  1 16  1  0  0  0
  1 17  1  0  0  0
  1 18  1  0  0  0
  2  3  1  0  0  0
  2 19  1  0  0  0
  2 20  1  0  0  0
  3  4  1  0  0  0
  3 21  1  0  0  0
  3 22  1  0  0  0
  4  5  1  0  0  0
  4 23  1  0  0  0
  4 24  1  0  0  0
  5  6  1  0  0  0
  5 25  1  0  0  0
  5 26  1  0  0  0
  6  7  1  0  0  0
  6 27  1  0  0  0
  6 40  1  0  0  0
  7  8  1  0  0  0
  7 28  1  0  0  0
  7 29  1  0  0  0
  8 30  1  0  0  0
  8 31  1  0  0  0
  8 32  1  0  0  0
  9 33  1  0  0  0
  9 34  1  0  0  0
  9 35  1  0  0  0
  9 40  1  0  0  0
 10 11  1  0  0  0
 10 36  1  0  0  0
 10 37  1  0  0  0
 10 40  1  0  0  0
 11 12  2  0  0  0
 11 15  1  0  0  0
 12 13  1  0  0  0
 12 38  1  0  0  0
 13 14  1  0  0  0
 14 15  2  0  0  0
 14 39  1  0  0  0
 40 41  1  0  0  0
M  CHG  1  40   1
M  END
> <energy>
31.0125

> <chiral flag>
0

> <version>
0

> <i_ionizer_Ion_state_n>
1

> <i_ionizer_Tot_Q>
1

> <s_ionizer_Ion_centers>
40

> <s_ionizer_Ion_types>
N5

> <s_ionizer_Ion_ctrs_in>
9

> <r_ionizer_Ionization_penalty>
0.00148639

> <r_ionizer_Ionization_penalty_charging>
0.00148639

> <r_ionizer_Ionization_penalty_neutral>
0

$$$$
ZINC001258442982
                    3D
 Structure written by MMmdl.
 41 41  0  0  1  0            999 V2000
   -3.7127    2.5553   -0.3730 C   0  0  0  0  0  0
   -2.8938    1.5552   -1.1771 C   0  0  0  0  0  0
   -2.8638    0.1918   -0.4909 C   0  0  0  0  0  0
   -1.9846   -0.8165   -1.2441 C   0  0  0  0  0  0
   -1.1230   -1.6277   -0.2649 C   0  0  0  0  0  0
    0.1647   -0.8684    0.1569 C   0  0  1  0  0  0
    0.7694   -1.4723    1.4400 C   0  0  0  0  0  0
   -0.0066   -1.1036    2.6967 C   0  0  0  0  0  0
    1.9621   -2.0250   -1.1264 C   0  0  0  0  0  0
    1.7446    0.4087   -1.2941 C   0  0  0  0  0  0
    2.7193    0.9046   -0.2749 C   0  0  0  0  0  0
    2.4955    1.7166    0.8232 C   0  0  0  0  0  0
    3.6107    2.0531    1.5671 N   0  0  0  0  0  0
    4.6763    1.5063    1.0211 C   0  0  0  0  0  0
    4.4037    0.5759   -0.3918 S   0  0  0  0  0  0
   -3.7155    3.5277   -0.8748 H   0  0  0  0  0  0
   -4.7498    2.2269   -0.2610 H   0  0  0  0  0  0
   -3.2907    2.6918    0.6288 H   0  0  0  0  0  0
   -3.3163    1.4647   -2.1848 H   0  0  0  0  0  0
   -1.8719    1.9416   -1.2841 H   0  0  0  0  0  0
   -2.5157    0.3215    0.5418 H   0  0  0  0  0  0
   -3.8822   -0.2100   -0.4219 H   0  0  0  0  0  0
   -2.6350   -1.5026   -1.8011 H   0  0  0  0  0  0
   -1.3547   -0.3238   -1.9952 H   0  0  0  0  0  0
   -0.8606   -2.5851   -0.7303 H   0  0  0  0  0  0
   -1.7314   -1.8900    0.6070 H   0  0  0  0  0  0
   -0.1301    0.1661    0.3757 H   0  0  0  0  0  0
    1.7955   -1.1194    1.5823 H   0  0  0  0  0  0
    0.8162   -2.5650    1.3578 H   0  0  0  0  0  0
    0.4656   -1.5658    3.5703 H   0  0  0  0  0  0
   -0.0073   -0.0193    2.8479 H   0  0  0  0  0  0
   -1.0439   -1.4434    2.6588 H   0  0  0  0  0  0
    2.7337   -2.0691   -0.3519 H   0  0  0  0  0  0
    2.4614   -2.0250   -2.1029 H   0  0  0  0  0  0
    1.3909   -2.9568   -1.0760 H   0  0  0  0  0  0
    2.2325    0.3376   -2.2761 H   0  0  0  0  0  0
    0.9706    1.1739   -1.4386 H   0  0  0  0  0  0
    1.5265    2.0980    1.1246 H   0  0  0  0  0  0
    5.6664    1.6405    1.4334 H   0  0  0  0  0  0
    1.0126   -0.8759   -1.1017 N   0  3  2  0  0  0
    0.3733   -0.9872   -1.8974 H   0  0  0  0  0  0
  1  2  1  0  0  0
  1 16  1  0  0  0
  1 17  1  0  0  0
  1 18  1  0  0  0
  2  3  1  0  0  0
  2 19  1  0  0  0
  2 20  1  0  0  0
  3  4  1  0  0  0
  3 21  1  0  0  0
  3 22  1  0  0  0
  4  5  1  0  0  0
  4 23  1  0  0  0
  4 24  1  0  0  0
  5  6  1  0  0  0
  5 25  1  0  0  0
  5 26  1  0  0  0
  6  7  1  0  0  0
  6 27  1  0  0  0
  6 40  1  0  0  0
  7  8  1  0  0  0
  7 28  1  0  0  0
  7 29  1  0  0  0
  8 30  1  0  0  0
  8 31  1  0  0  0
  8 32  1  0  0  0
  9 33  1  0  0  0
  9 34  1  0  0  0
  9 35  1  0  0  0
  9 40  1  0  0  0
 10 11  1  0  0  0
 10 36  1  0  0  0
 10 37  1  0  0  0
 10 40  1  0  0  0
 11 12  2  0  0  0
 11 15  1  0  0  0
 12 13  1  0  0  0
 12 38  1  0  0  0
 13 14  2  0  0  0
 14 15  1  0  0  0
 14 39  1  0  0  0
 40 41  1  0  0  0
M  CHG  1  40   1
M  END
> <energy>
19.9948

> <chiral flag>
0

> <version>
0

> <i_ionizer_Ion_state_n>
1

> <i_ionizer_Tot_Q>
1

> <s_ionizer_Ion_centers>
40

> <s_ionizer_Ion_types>
N5

> <s_ionizer_Ion_ctrs_in>
9

> <r_ionizer_Ionization_penalty>
0.00148639

> <r_ionizer_Ionization_penalty_charging>
0.00148639

> <r_ionizer_Ionization_penalty_neutral>
0

$$$$
ZINC001258442983
                    3D
 Structure written by MMmdl.
 41 41  0  0  1  0            999 V2000
    3.5522    1.2820    1.9763 C   0  0  0  0  0  0
    3.5845    0.4182    0.7276 C   0  0  0  0  0  0
    2.1988   -0.0377    0.2718 C   0  0  0  0  0  0
    1.5033   -0.9860    1.2556 C   0  0  0  0  0  0
    0.3463   -1.7559    0.5991 C   0  0  0  0  0  0
   -0.8842   -0.8657    0.2394 C   0  0  2  0  0  0
   -2.0679   -1.2365    1.1700 C   0  0  0  0  0  0
   -3.2912   -0.3395    1.0497 C   0  0  0  0  0  0
   -1.7771   -2.2044   -1.6285 C   0  0  0  0  0  0
   -1.7406    0.1959   -1.8601 C   0  0  0  0  0  0
   -0.9070    1.4403   -1.8027 C   0  0  0  0  0  0
   -1.0576    2.5527   -0.9918 C   0  0  0  0  0  0
   -0.1343    3.5630   -1.1703 N   0  0  0  0  0  0
    0.7116    3.2115   -2.1156 C   0  0  0  0  0  0
    0.4265    1.6911   -2.8557 S   0  0  0  0  0  0
    2.8264    2.0958    1.8776 H   0  0  0  0  0  0
    3.2981    0.6899    2.8602 H   0  0  0  0  0  0
    4.5359    1.7294    2.1454 H   0  0  0  0  0  0
    4.2329   -0.4492    0.8955 H   0  0  0  0  0  0
    4.0396    0.9961   -0.0865 H   0  0  0  0  0  0
    2.3156   -0.5332   -0.7007 H   0  0  0  0  0  0
    1.5692    0.8436    0.1058 H   0  0  0  0  0  0
    1.1300   -0.4345    2.1278 H   0  0  0  0  0  0
    2.2334   -1.7167    1.6271 H   0  0  0  0  0  0
    0.0482   -2.5695    1.2728 H   0  0  0  0  0  0
    0.7495   -2.2547   -0.2922 H   0  0  0  0  0  0
   -0.6130    0.1663    0.4851 H   0  0  0  0  0  0
   -2.3744   -2.2789    1.0235 H   0  0  0  0  0  0
   -1.7191   -1.1743    2.2089 H   0  0  0  0  0  0
   -3.8434   -0.5266    0.1241 H   0  0  0  0  0  0
   -3.9872   -0.5306    1.8740 H   0  0  0  0  0  0
   -3.0116    0.7180    1.0868 H   0  0  0  0  0  0
   -2.8360   -2.2162   -1.3519 H   0  0  0  0  0  0
   -1.7118   -2.3343   -2.7152 H   0  0  0  0  0  0
   -1.2947   -3.0807   -1.1837 H   0  0  0  0  0  0
   -2.7311    0.4082   -1.4462 H   0  0  0  0  0  0
   -1.9135   -0.0250   -2.9236 H   0  0  0  0  0  0
   -1.8312    2.6733   -0.2446 H   0  0  0  0  0  0
    1.5366    3.8433   -2.4155 H   0  0  0  0  0  0
   -1.0432   -0.9821   -1.2668 N   0  3  1  0  0  0
   -0.1034   -1.0360   -1.6769 H   0  0  0  0  0  0
  1  2  1  0  0  0
  1 16  1  0  0  0
  1 17  1  0  0  0
  1 18  1  0  0  0
  2  3  1  0  0  0
  2 19  1  0  0  0
  2 20  1  0  0  0
  3  4  1  0  0  0
  3 21  1  0  0  0
  3 22  1  0  0  0
  4  5  1  0  0  0
  4 23  1  0  0  0
  4 24  1  0  0  0
  5  6  1  0  0  0
  5 25  1  0  0  0
  5 26  1  0  0  0
  6  7  1  0  0  0
  6 27  1  0  0  0
  6 40  1  0  0  0
  7  8  1  0  0  0
  7 28  1  0  0  0
  7 29  1  0  0  0
  8 30  1  0  0  0
  8 31  1  0  0  0
  8 32  1  0  0  0
  9 33  1  0  0  0
  9 34  1  0  0  0
  9 35  1  0  0  0
  9 40  1  0  0  0
 10 11  1  0  0  0
 10 36  1  0  0  0
 10 37  1  0  0  0
 10 40  1  0  0  0
 11 12  2  0  0  0
 11 15  1  0  0  0
 12 13  1  0  0  0
 12 38  1  0  0  0
 13 14  2  0  0  0
 14 15  1  0  0  0
 14 39  1  0  0  0
 40 41  1  0  0  0
M  CHG  1  40   1
M  END
> <energy>
20.6373

> <chiral flag>
0

> <version>
0

> <i_ionizer_Ion_state_n>
1

> <i_ionizer_Tot_Q>
1

> <s_ionizer_Ion_centers>
40

> <s_ionizer_Ion_types>
N5

> <s_ionizer_Ion_ctrs_in>
9

> <r_ionizer_Ionization_penalty>
0.00148639

> <r_ionizer_Ionization_penalty_charging>
0.00148639

> <r_ionizer_Ionization_penalty_neutral>
0

$$$$
ZINC001258443007
                    3D
 Structure written by MMmdl.
 43 44  0  0  1  0            999 V2000
    4.8769   -1.3738    0.5105 C   0  0  0  0  0  0
    3.4117   -1.5938    0.8523 C   0  0  0  0  0  0
    2.5055   -1.3595   -0.3569 C   0  0  0  0  0  0
    1.0225   -1.4060    0.0383 C   0  0  0  0  0  0
    0.1226   -1.1488   -1.1693 C   0  0  0  0  0  0
   -1.3726   -0.8155   -0.9178 C   0  0  1  0  0  0
   -2.1319   -1.8643   -0.0656 C   0  0  0  0  0  0
   -2.0928   -1.7196    1.4494 C   0  0  0  0  0  0
   -1.6297    1.5285   -1.6723 C   0  0  0  0  0  0
   -1.0486    2.7678   -0.9896 C   0  0  2  0  0  0
   -0.0242    2.1256   -0.0647 C   0  0  0  0  0  0
   -1.0686    1.2211    0.5837 C   0  0  1  0  0  0
   -2.0935    2.2488    1.1077 C   0  0  0  0  0  0
   -2.0591    3.3210    0.0188 C   0  0  2  0  0  0
   -3.2727    3.5029   -0.5436 F   0  0  0  0  0  0
    5.5064   -1.6373    1.3651 H   0  0  0  0  0  0
    5.1826   -1.9901   -0.3393 H   0  0  0  0  0  0
    5.0631   -0.3244    0.2578 H   0  0  0  0  0  0
    3.1325   -0.9179    1.6682 H   0  0  0  0  0  0
    3.2726   -2.6174    1.2181 H   0  0  0  0  0  0
    2.7107   -2.1164   -1.1253 H   0  0  0  0  0  0
    2.7325   -0.3812   -0.7986 H   0  0  0  0  0  0
    0.7893   -2.3912    0.4609 H   0  0  0  0  0  0
    0.8614   -0.6663    0.8237 H   0  0  0  0  0  0
    0.1606   -2.0476   -1.8043 H   0  0  0  0  0  0
    0.5597   -0.3579   -1.7888 H   0  0  0  0  0  0
   -1.8245   -0.9593   -1.9123 H   0  0  0  0  0  0
   -1.7777   -2.8675   -0.3350 H   0  0  0  0  0  0
   -3.1920   -1.8340   -0.3580 H   0  0  0  0  0  0
   -1.0740   -1.6810    1.8404 H   0  0  0  0  0  0
   -2.5893   -2.5771    1.9175 H   0  0  0  0  0  0
   -2.6321   -0.8276    1.7815 H   0  0  0  0  0  0
   -2.6068    1.7124   -2.1278 H   0  0  0  0  0  0
   -0.9435    1.1918   -2.4579 H   0  0  0  0  0  0
   -0.6622    3.5133   -1.6864 H   0  0  0  0  0  0
    0.4303    2.8387    0.6327 H   0  0  0  0  0  0
    0.7655    1.5876   -0.5966 H   0  0  0  0  0  0
   -0.7101    0.5766    1.3839 H   0  0  0  0  0  0
   -1.7452    2.6670    2.0579 H   0  0  0  0  0  0
   -3.0925    1.8275    1.2629 H   0  0  0  0  0  0
   -1.7326    4.2807    0.4327 H   0  0  0  0  0  0
   -1.8077    0.6132   -0.5510 N   0  3  2  0  0  0
   -2.8036    0.5753   -0.3040 H   0  0  0  0  0  0
  1  2  1  0  0  0
  1 16  1  0  0  0
  1 17  1  0  0  0
  1 18  1  0  0  0
  2  3  1  0  0  0
  2 19  1  0  0  0
  2 20  1  0  0  0
  3  4  1  0  0  0
  3 21  1  0  0  0
  3 22  1  0  0  0
  4  5  1  0  0  0
  4 23  1  0  0  0
  4 24  1  0  0  0
  5  6  1  0  0  0
  5 25  1  0  0  0
  5 26  1  0  0  0
  6  7  1  0  0  0
  6 27  1  0  0  0
  6 42  1  0  0  0
  7  8  1  0  0  0
  7 28  1  0  0  0
  7 29  1  0  0  0
  8 30  1  0  0  0
  8 31  1  0  0  0
  8 32  1  0  0  0
  9 10  1  0  0  0
  9 33  1  0  0  0
  9 34  1  0  0  0
  9 42  1  0  0  0
 10 11  1  0  0  0
 10 14  1  0  0  0
 10 35  1  0  0  0
 11 12  1  0  0  0
 11 36  1  0  0  0
 11 37  1  0  0  0
 12 13  1  0  0  0
 12 38  1  0  0  0
 12 42  1  0  0  0
 13 14  1  0  0  0
 13 39  1  0  0  0
 13 40  1  0  0  0
 14 15  1  0  0  0
 14 41  1  0  0  0
 42 43  1  0  0  0
M  CHG  1  42   1
M  END
> <energy>
28.7751

> <chiral flag>
0

> <version>
0

> <i_ionizer_Ion_state_n>
1

> <i_ionizer_Tot_Q>
1

> <s_ionizer_Ion_centers>
42

> <s_ionizer_Ion_types>
N5

> <s_ionizer_Ion_ctrs_in>
9

> <r_ionizer_Ionization_penalty>
0.00148639

> <r_ionizer_Ionization_penalty_charging>
0.00148639

> <r_ionizer_Ionization_penalty_neutral>
0

$$$$
ZINC001258443009
                    3D
 Structure written by MMmdl.
 43 44  0  0  1  0            999 V2000
   -4.1674    0.8203    0.2101 C   0  0  0  0  0  0
   -3.1527   -0.2616   -0.1306 C   0  0  0  0  0  0
   -2.2597    0.1594   -1.2956 C   0  0  0  0  0  0
   -1.3517   -0.9417   -1.8498 C   0  0  0  0  0  0
   -0.6704   -1.8996   -0.8652 C   0  0  0  0  0  0
    0.5418   -1.4472    0.0127 C   0  0  2  0  0  0
    0.2284   -1.6306    1.5185 C   0  0  0  0  0  0
    1.4307   -2.0359    2.3621 C   0  0  0  0  0  0
    2.5989   -0.1137   -0.4048 C   0  0  0  0  0  0
    2.8829    1.2980    0.1155 C   0  0  2  0  0  0
    1.8248    1.4420    1.1959 C   0  0  0  0  0  0
    0.6881    1.0814    0.2420 C   0  0  1  0  0  0
    0.8576    2.1582   -0.8533 C   0  0  0  0  0  0
    2.3807    2.3343   -0.8948 C   0  0  2  0  0  0
    2.8830    2.1066   -2.1272 F   0  0  0  0  0  0
   -3.6752    1.7641    0.4678 H   0  0  0  0  0  0
   -4.8407    1.0065   -0.6334 H   0  0  0  0  0  0
   -4.7772    0.5104    1.0642 H   0  0  0  0  0  0
   -2.5438   -0.4621    0.7573 H   0  0  0  0  0  0
   -3.6869   -1.1834   -0.3833 H   0  0  0  0  0  0
   -1.6735    1.0311   -1.0037 H   0  0  0  0  0  0
   -2.8907    0.5114   -2.1216 H   0  0  0  0  0  0
   -0.6089   -0.5051   -2.5275 H   0  0  0  0  0  0
   -1.9881   -1.5673   -2.4916 H   0  0  0  0  0  0
   -1.4426   -2.3697   -0.2459 H   0  0  0  0  0  0
   -0.2944   -2.7240   -1.4923 H   0  0  0  0  0  0
    1.2929   -2.2189   -0.2185 H   0  0  0  0  0  0
   -0.5145   -2.4263    1.6478 H   0  0  0  0  0  0
   -0.2298   -0.7340    1.9430 H   0  0  0  0  0  0
    2.2193   -1.2798    2.3760 H   0  0  0  0  0  0
    1.1160   -2.2031    3.3994 H   0  0  0  0  0  0
    1.8713   -2.9704    1.9961 H   0  0  0  0  0  0
    2.9949   -0.2791   -1.4107 H   0  0  0  0  0  0
    3.0462   -0.8493    0.2698 H   0  0  0  0  0  0
    3.9182    1.4538    0.4324 H   0  0  0  0  0  0
    1.9502    0.7544    2.0311 H   0  0  0  0  0  0
    1.7465    2.4599    1.5953 H   0  0  0  0  0  0
   -0.3121    1.0726    0.6823 H   0  0  0  0  0  0
    0.4455    1.8616   -1.8233 H   0  0  0  0  0  0
    0.3773    3.0922   -0.5405 H   0  0  0  0  0  0
    2.6608    3.3525   -0.6020 H   0  0  0  0  0  0
    1.1421   -0.1253   -0.4916 N   0  3  2  0  0  0
    0.8685   -0.0254   -1.4761 H   0  0  0  0  0  0
  1  2  1  0  0  0
  1 16  1  0  0  0
  1 17  1  0  0  0
  1 18  1  0  0  0
  2  3  1  0  0  0
  2 19  1  0  0  0
  2 20  1  0  0  0
  3  4  1  0  0  0
  3 21  1  0  0  0
  3 22  1  0  0  0
  4  5  1  0  0  0
  4 23  1  0  0  0
  4 24  1  0  0  0
  5  6  1  0  0  0
  5 25  1  0  0  0
  5 26  1  0  0  0
  6  7  1  0  0  0
  6 27  1  0  0  0
  6 42  1  0  0  0
  7  8  1  0  0  0
  7 28  1  0  0  0
  7 29  1  0  0  0
  8 30  1  0  0  0
  8 31  1  0  0  0
  8 32  1  0  0  0
  9 10  1  0  0  0
  9 33  1  0  0  0
  9 34  1  0  0  0
  9 42  1  0  0  0
 10 11  1  0  0  0
 10 14  1  0  0  0
 10 35  1  0  0  0
 11 12  1  0  0  0
 11 36  1  0  0  0
 11 37  1  0  0  0
 12 13  1  0  0  0
 12 38  1  0  0  0
 12 42  1  0  0  0
 13 14  1  0  0  0
 13 39  1  0  0  0
 13 40  1  0  0  0
 14 15  1  0  0  0
 14 41  1  0  0  0
 42 43  1  0  0  0
M  CHG  1  42   1
M  END
> <energy>
37.3949

> <chiral flag>
0

> <version>
0

> <i_ionizer_Ion_state_n>
1

> <i_ionizer_Tot_Q>
1

> <s_ionizer_Ion_centers>
42

> <s_ionizer_Ion_types>
N5

> <s_ionizer_Ion_ctrs_in>
9

> <r_ionizer_Ionization_penalty>
0.00148639

> <r_ionizer_Ionization_penalty_charging>
0.00148639

> <r_ionizer_Ionization_penalty_neutral>
0

$$$$
ZINC001258443213
                    3D
 Structure written by MMmdl.
 41 41  0  0  1  0            999 V2000
   -3.0483    0.0093   -0.0968 C   0  0  0  0  0  0
   -2.4357    0.5428    1.1893 C   0  0  0  0  0  0
   -2.0579   -0.5662    2.1758 C   0  0  0  0  0  0
   -0.5656   -0.9257    2.2045 C   0  0  0  0  0  0
   -0.0367   -1.5746    0.9159 C   0  0  0  0  0  0
    0.8377   -0.6280    0.0449 C   0  0  1  0  0  0
    2.3459   -0.7529    0.3916 C   0  0  0  0  0  0
    2.6950   -0.3166    1.8075 C   0  0  0  0  0  0
    0.9863   -2.1620   -1.8958 C   0  0  0  0  0  0
    1.0287    0.2112   -2.2964 C   0  0  0  0  0  0
    0.4915    1.5936   -2.0007 C   0  0  0  0  0  0
   -0.7778    1.9496   -2.0547 N   0  0  0  0  0  0
   -0.9070    3.2777   -1.7055 C   0  0  0  0  0  0
    0.2675    3.9374   -1.4245 C   0  0  0  0  0  0
    1.5869    2.8588   -1.5728 S   0  0  0  0  0  0
   -3.3847    0.8396   -0.7243 H   0  0  0  0  0  0
   -2.3313   -0.5754   -0.6767 H   0  0  0  0  0  0
   -3.9167   -0.6222    0.1149 H   0  0  0  0  0  0
   -1.5754    1.1816    0.9626 H   0  0  0  0  0  0
   -3.1810    1.1904    1.6659 H   0  0  0  0  0  0
   -2.6557   -1.4687    1.9999 H   0  0  0  0  0  0
   -2.3254   -0.2233    3.1844 H   0  0  0  0  0  0
   -0.4215   -1.6403    3.0262 H   0  0  0  0  0  0
    0.0093   -0.0354    2.4770 H   0  0  0  0  0  0
   -0.8874   -1.9639    0.3464 H   0  0  0  0  0  0
    0.5575   -2.4589    1.1831 H   0  0  0  0  0  0
    0.5275    0.3951    0.2807 H   0  0  0  0  0  0
    2.9422   -0.1386   -0.2933 H   0  0  0  0  0  0
    2.6841   -1.7879    0.2587 H   0  0  0  0  0  0
    2.3122    0.6890    2.0137 H   0  0  0  0  0  0
    2.2903   -1.0089    2.5506 H   0  0  0  0  0  0
    3.7830   -0.2936    1.9367 H   0  0  0  0  0  0
    2.0769   -2.2306   -1.9887 H   0  0  0  0  0  0
    0.5516   -2.3501   -2.8837 H   0  0  0  0  0  0
    0.6439   -2.9854   -1.2608 H   0  0  0  0  0  0
    2.1251    0.2245   -2.3248 H   0  0  0  0  0  0
    0.7048   -0.0230   -3.3190 H   0  0  0  0  0  0
   -1.8941    3.7220   -1.6778 H   0  0  0  0  0  0
    0.4079    4.9698   -1.1421 H   0  0  0  0  0  0
    0.4818   -0.8638   -1.4149 N   0  3  2  0  0  0
   -0.5418   -0.8621   -1.4949 H   0  0  0  0  0  0
  1  2  1  0  0  0
  1 16  1  0  0  0
  1 17  1  0  0  0
  1 18  1  0  0  0
  2  3  1  0  0  0
  2 19  1  0  0  0
  2 20  1  0  0  0
  3  4  1  0  0  0
  3 21  1  0  0  0
  3 22  1  0  0  0
  4  5  1  0  0  0
  4 23  1  0  0  0
  4 24  1  0  0  0
  5  6  1  0  0  0
  5 25  1  0  0  0
  5 26  1  0  0  0
  6  7  1  0  0  0
  6 27  1  0  0  0
  6 40  1  0  0  0
  7  8  1  0  0  0
  7 28  1  0  0  0
  7 29  1  0  0  0
  8 30  1  0  0  0
  8 31  1  0  0  0
  8 32  1  0  0  0
  9 33  1  0  0  0
  9 34  1  0  0  0
  9 35  1  0  0  0
  9 40  1  0  0  0
 10 11  1  0  0  0
 10 36  1  0  0  0
 10 37  1  0  0  0
 10 40  1  0  0  0
 11 12  2  0  0  0
 11 15  1  0  0  0
 12 13  1  0  0  0
 13 14  2  0  0  0
 13 38  1  0  0  0
 14 15  1  0  0  0
 14 39  1  0  0  0
 40 41  1  0  0  0
M  CHG  1  40   1
M  END
> <energy>
45.8187

> <chiral flag>
0

> <version>
0

> <i_ionizer_Ion_state_n>
1

> <i_ionizer_Tot_Q>
1

> <s_ionizer_Ion_centers>
40

> <s_ionizer_Ion_types>
N5

> <s_ionizer_Ion_ctrs_in>
9

> <r_ionizer_Ionization_penalty>
0.00148639

> <r_ionizer_Ionization_penalty_charging>
0.00148639

> <r_ionizer_Ionization_penalty_neutral>
0

$$$$
ZINC001258443214
                    3D
 Structure written by MMmdl.
 41 41  0  0  1  0            999 V2000
   -4.6733    1.0726    0.2329 C   0  0  0  0  0  0
   -3.2330    0.7465   -0.1322 C   0  0  0  0  0  0
   -3.0390   -0.7569   -0.3466 C   0  0  0  0  0  0
   -1.6274   -1.1217   -0.8219 C   0  0  0  0  0  0
   -0.5817   -1.0163    0.2919 C   0  0  0  0  0  0
    0.8709   -1.3232   -0.1560 C   0  0  2  0  0  0
    1.7547   -1.4897    1.1072 C   0  0  0  0  0  0
    3.1920   -1.8992    0.8054 C   0  0  0  0  0  0
    1.4750   -0.8929   -2.4852 C   0  0  0  0  0  0
    1.1391    1.0279   -1.0508 C   0  0  0  0  0  0
    1.5765    1.7682    0.1947 C   0  0  0  0  0  0
    2.8011    1.7709    0.6908 N   0  0  0  0  0  0
    2.8525    2.5633    1.8171 C   0  0  0  0  0  0
    1.6737    3.1839    2.1626 C   0  0  0  0  0  0
    0.4540    2.7795    1.0320 S   0  0  0  0  0  0
   -4.9606    0.5774    1.1662 H   0  0  0  0  0  0
   -5.3607    0.7497   -0.5543 H   0  0  0  0  0  0
   -4.7953    2.1519    0.3670 H   0  0  0  0  0  0
   -2.5784    1.1094    0.6669 H   0  0  0  0  0  0
   -2.9628    1.2897   -1.0451 H   0  0  0  0  0  0
   -3.7531   -1.1019   -1.1046 H   0  0  0  0  0  0
   -3.2729   -1.2982    0.5768 H   0  0  0  0  0  0
   -1.6424   -2.1569   -1.1850 H   0  0  0  0  0  0
   -1.3708   -0.4945   -1.6774 H   0  0  0  0  0  0
   -0.8624   -1.7405    1.0692 H   0  0  0  0  0  0
   -0.6283   -0.0395    0.7794 H   0  0  0  0  0  0
    0.8448   -2.3253   -0.6095 H   0  0  0  0  0  0
    1.3169   -2.2704    1.7429 H   0  0  0  0  0  0
    1.7567   -0.5755    1.7093 H   0  0  0  0  0  0
    3.7282   -2.0961    1.7400 H   0  0  0  0  0  0
    3.2234   -2.8097    0.1981 H   0  0  0  0  0  0
    3.7342   -1.1130    0.2718 H   0  0  0  0  0  0
    2.1232   -0.2894   -3.1312 H   0  0  0  0  0  0
    1.8667   -1.9147   -2.5456 H   0  0  0  0  0  0
    0.4669   -0.8849   -2.9099 H   0  0  0  0  0  0
    0.0677    1.1644   -1.2338 H   0  0  0  0  0  0
    1.6428    1.5546   -1.8733 H   0  0  0  0  0  0
    3.7875    2.6529    2.3567 H   0  0  0  0  0  0
    1.4804    3.8451    2.9949 H   0  0  0  0  0  0
    1.6064   -0.4033   -1.1123 N   0  3  1  0  0  0
    2.6005   -0.4196   -0.8558 H   0  0  0  0  0  0
  1  2  1  0  0  0
  1 16  1  0  0  0
  1 17  1  0  0  0
  1 18  1  0  0  0
  2  3  1  0  0  0
  2 19  1  0  0  0
  2 20  1  0  0  0
  3  4  1  0  0  0
  3 21  1  0  0  0
  3 22  1  0  0  0
  4  5  1  0  0  0
  4 23  1  0  0  0
  4 24  1  0  0  0
  5  6  1  0  0  0
  5 25  1  0  0  0
  5 26  1  0  0  0
  6  7  1  0  0  0
  6 27  1  0  0  0
  6 40  1  0  0  0
  7  8  1  0  0  0
  7 28  1  0  0  0
  7 29  1  0  0  0
  8 30  1  0  0  0
  8 31  1  0  0  0
  8 32  1  0  0  0
  9 33  1  0  0  0
  9 34  1  0  0  0
  9 35  1  0  0  0
  9 40  1  0  0  0
 10 11  1  0  0  0
 10 36  1  0  0  0
 10 37  1  0  0  0
 10 40  1  0  0  0
 11 12  2  0  0  0
 11 15  1  0  0  0
 12 13  1  0  0  0
 13 14  2  0  0  0
 13 38  1  0  0  0
 14 15  1  0  0  0
 14 39  1  0  0  0
 40 41  1  0  0  0
M  CHG  1  40   1
M  END
> <energy>
40.6346

> <chiral flag>
0

> <version>
0

> <i_ionizer_Ion_state_n>
1

> <i_ionizer_Tot_Q>
1

> <s_ionizer_Ion_centers>
40

> <s_ionizer_Ion_types>
N5

> <s_ionizer_Ion_ctrs_in>
9

> <r_ionizer_Ionization_penalty>
0.00148639

> <r_ionizer_Ionization_penalty_charging>
0.00148639

> <r_ionizer_Ionization_penalty_neutral>
0

$$$$
ZINC001258443233
                    3D
 Structure written by MMmdl.
 46 46  0  0  1  0            999 V2000
   -3.4985   -3.4988   -0.9504 C   0  0  0  0  0  0
   -3.0342   -2.2529   -0.2102 C   0  0  0  0  0  0
   -3.3093   -0.9715   -1.0039 C   0  0  0  0  0  0
   -2.8314    0.2856   -0.2697 C   0  0  0  0  0  0
   -1.2945    0.4280   -0.2455 C   0  0  0  0  0  0
   -0.7506    1.0138    1.0914 C   0  0  2  0  0  0
   -1.1987    2.4776    1.3079 C   0  0  0  0  0  0
   -1.4246    2.8397    2.7703 C   0  0  0  0  0  0
    1.2604    0.7195    2.5089 C   0  0  0  0  0  0
    1.5551    1.4826    0.2072 C   0  0  0  0  0  0
    2.5074    0.5799   -0.5249 C   0  0  0  0  0  0
    2.3439   -0.7876   -0.6410 C   0  0  0  0  0  0
    3.1617   -1.5979   -1.3421 N   0  0  0  0  0  0
    4.1944   -1.0041   -1.9699 C   0  0  0  0  0  0
    5.1082   -1.8655   -2.7818 C   0  0  0  0  0  0
    4.4446    0.3191   -1.9424 N   0  0  0  0  0  0
    3.5948    1.0753   -1.2194 C   0  0  0  0  0  0
   -4.5318   -3.3938   -1.2965 H   0  0  0  0  0  0
   -2.8594   -3.6936   -1.8171 H   0  0  0  0  0  0
   -3.4461   -4.3667   -0.2829 H   0  0  0  0  0  0
   -1.9640   -2.3566   -0.0005 H   0  0  0  0  0  0
   -3.5495   -2.1984    0.7559 H   0  0  0  0  0  0
   -2.8434   -1.0310   -1.9940 H   0  0  0  0  0  0
   -4.3912   -0.8880   -1.1714 H   0  0  0  0  0  0
   -3.2474    0.2885    0.7429 H   0  0  0  0  0  0
   -3.2617    1.1613   -0.7701 H   0  0  0  0  0  0
   -0.9915    1.0513   -1.0976 H   0  0  0  0  0  0
   -0.8326   -0.5532   -0.4102 H   0  0  0  0  0  0
   -1.2146    0.3989    1.8747 H   0  0  0  0  0  0
   -0.4797    3.1813    0.8747 H   0  0  0  0  0  0
   -2.1475    2.6568    0.7876 H   0  0  0  0  0  0
   -0.5033    2.8104    3.3506 H   0  0  0  0  0  0
   -2.1459    2.1614    3.2344 H   0  0  0  0  0  0
   -1.8292    3.8526    2.8445 H   0  0  0  0  0  0
    1.3878    1.7133    2.9509 H   0  0  0  0  0  0
    2.2413    0.2298    2.4983 H   0  0  0  0  0  0
    0.6305    0.1195    3.1740 H   0  0  0  0  0  0
    2.1222    2.2751    0.7164 H   0  0  0  0  0  0
    0.9607    1.9923   -0.5587 H   0  0  0  0  0  0
    1.5178   -1.3058   -0.1557 H   0  0  0  0  0  0
    6.1535   -1.6202   -2.5689 H   0  0  0  0  0  0
    4.9164   -1.7070   -3.8477 H   0  0  0  0  0  0
    4.9556   -2.9257   -2.5558 H   0  0  0  0  0  0
    3.8225    2.1385   -1.2260 H   0  0  0  0  0  0
    0.7193    0.6461    1.1349 N   0  3  2  0  0  0
    0.7962   -0.3291    0.8229 H   0  0  0  0  0  0
  1  2  1  0  0  0
  1 18  1  0  0  0
  1 19  1  0  0  0
  1 20  1  0  0  0
  2  3  1  0  0  0
  2 21  1  0  0  0
  2 22  1  0  0  0
  3  4  1  0  0  0
  3 23  1  0  0  0
  3 24  1  0  0  0
  4  5  1  0  0  0
  4 25  1  0  0  0
  4 26  1  0  0  0
  5  6  1  0  0  0
  5 27  1  0  0  0
  5 28  1  0  0  0
  6  7  1  0  0  0
  6 29  1  0  0  0
  6 45  1  0  0  0
  7  8  1  0  0  0
  7 30  1  0  0  0
  7 31  1  0  0  0
  8 32  1  0  0  0
  8 33  1  0  0  0
  8 34  1  0  0  0
  9 35  1  0  0  0
  9 36  1  0  0  0
  9 37  1  0  0  0
  9 45  1  0  0  0
 10 11  1  0  0  0
 10 38  1  0  0  0
 10 39  1  0  0  0
 10 45  1  0  0  0
 11 12  2  0  0  0
 11 17  1  0  0  0
 12 13  1  0  0  0
 12 40  1  0  0  0
 13 14  2  0  0  0
 14 15  1  0  0  0
 14 16  1  0  0  0
 15 41  1  0  0  0
 15 42  1  0  0  0
 15 43  1  0  0  0
 16 17  2  0  0  0
 17 44  1  0  0  0
 45 46  1  0  0  0
M  CHG  1  45   1
M  END
> <energy>
11.4952

> <chiral flag>
0

> <version>
0

> <i_ionizer_Ion_state_n>
1

> <i_ionizer_Tot_Q>
1

> <s_ionizer_Ion_centers>
45

> <s_ionizer_Ion_types>
N5

> <s_ionizer_Ion_ctrs_in>
9

> <r_ionizer_Ionization_penalty>
0.00148639

> <r_ionizer_Ionization_penalty_charging>
0.00148639

> <r_ionizer_Ionization_penalty_neutral>
0

$$$$
ZINC001258443234
                    3D
 Structure written by MMmdl.
 46 46  0  0  1  0            999 V2000
   -4.0501    0.3546   -0.9199 C   0  0  0  0  0  0
   -3.8028   -1.0268   -1.5036 C   0  0  0  0  0  0
   -2.7202   -1.8183   -0.7647 C   0  0  0  0  0  0
   -1.3286   -1.1862   -0.8325 C   0  0  0  0  0  0
   -0.2718   -2.0483   -0.1313 C   0  0  0  0  0  0
    0.9835   -1.2737    0.3537 C   0  0  1  0  0  0
    1.8062   -2.1446    1.3453 C   0  0  0  0  0  0
    1.1024   -2.3288    2.6938 C   0  0  0  0  0  0
    2.3560   -1.6897   -1.6746 C   0  0  0  0  0  0
    1.4032    0.5117   -1.3521 C   0  0  0  0  0  0
    1.2744    1.6946   -0.4419 C   0  0  0  0  0  0
    0.2054    2.5646   -0.4757 C   0  0  0  0  0  0
    0.0980    3.6601    0.3015 N   0  0  0  0  0  0
    1.1178    3.8914    1.1496 C   0  0  0  0  0  0
    1.0423    5.1224    1.9967 C   0  0  0  0  0  0
    2.2135    3.1204    1.2614 N   0  0  0  0  0  0
    2.2647    2.0382    0.4583 C   0  0  0  0  0  0
   -4.2353    0.2951    0.1587 H   0  0  0  0  0  0
   -4.9296    0.8084   -1.3927 H   0  0  0  0  0  0
   -3.2000    1.0214   -1.0918 H   0  0  0  0  0  0
   -3.5506   -0.9393   -2.5678 H   0  0  0  0  0  0
   -4.7392   -1.5946   -1.4436 H   0  0  0  0  0  0
   -2.6797   -2.8262   -1.1944 H   0  0  0  0  0  0
   -3.0108   -1.9257    0.2867 H   0  0  0  0  0  0
   -1.0543   -1.0567   -1.8808 H   0  0  0  0  0  0
   -1.3560   -0.1987   -0.3651 H   0  0  0  0  0  0
   -0.7476   -2.5106    0.7391 H   0  0  0  0  0  0
    0.0184   -2.8853   -0.7760 H   0  0  0  0  0  0
    0.6302   -0.4295    0.9578 H   0  0  0  0  0  0
    2.7759   -1.6678    1.5461 H   0  0  0  0  0  0
    2.0130   -3.1369    0.9243 H   0  0  0  0  0  0
    0.6594   -1.3915    3.0497 H   0  0  0  0  0  0
    0.3157   -3.0863    2.6290 H   0  0  0  0  0  0
    1.8160   -2.6698    3.4543 H   0  0  0  0  0  0
    3.1288   -1.2360   -2.3076 H   0  0  0  0  0  0
    2.8399   -2.5412   -1.1905 H   0  0  0  0  0  0
    1.5542   -2.0567   -2.3247 H   0  0  0  0  0  0
    0.4643    0.3407   -1.8825 H   0  0  0  0  0  0
    2.1207    0.8120   -2.1286 H   0  0  0  0  0  0
   -0.6336    2.4132   -1.1533 H   0  0  0  0  0  0
    1.2114    6.0026    1.3697 H   0  0  0  0  0  0
    0.0546    5.2007    2.4609 H   0  0  0  0  0  0
    1.7965    5.1037    2.7890 H   0  0  0  0  0  0
    3.1597    1.4304    0.5610 H   0  0  0  0  0  0
    1.9625   -0.6899   -0.6621 N   0  3  1  0  0  0
    2.8058   -0.4016   -0.1523 H   0  0  0  0  0  0
  1  2  1  0  0  0
  1 18  1  0  0  0
  1 19  1  0  0  0
  1 20  1  0  0  0
  2  3  1  0  0  0
  2 21  1  0  0  0
  2 22  1  0  0  0
  3  4  1  0  0  0
  3 23  1  0  0  0
  3 24  1  0  0  0
  4  5  1  0  0  0
  4 25  1  0  0  0
  4 26  1  0  0  0
  5  6  1  0  0  0
  5 27  1  0  0  0
  5 28  1  0  0  0
  6  7  1  0  0  0
  6 29  1  0  0  0
  6 45  1  0  0  0
  7  8  1  0  0  0
  7 30  1  0  0  0
  7 31  1  0  0  0
  8 32  1  0  0  0
  8 33  1  0  0  0
  8 34  1  0  0  0
  9 35  1  0  0  0
  9 36  1  0  0  0
  9 37  1  0  0  0
  9 45  1  0  0  0
 10 11  1  0  0  0
 10 38  1  0  0  0
 10 39  1  0  0  0
 10 45  1  0  0  0
 11 12  2  0  0  0
 11 17  1  0  0  0
 12 13  1  0  0  0
 12 40  1  0  0  0
 13 14  2  0  0  0
 14 15  1  0  0  0
 14 16  1  0  0  0
 15 41  1  0  0  0
 15 42  1  0  0  0
 15 43  1  0  0  0
 16 17  2  0  0  0
 17 44  1  0  0  0
 45 46  1  0  0  0
M  CHG  1  45   1
M  END
> <energy>
7.16663

> <chiral flag>
0

> <version>
0

> <i_ionizer_Ion_state_n>
1

> <i_ionizer_Tot_Q>
1

> <s_ionizer_Ion_centers>
45

> <s_ionizer_Ion_types>
N5

> <s_ionizer_Ion_ctrs_in>
9

> <r_ionizer_Ionization_penalty>
0.00148639

> <r_ionizer_Ionization_penalty_charging>
0.00148639

> <r_ionizer_Ionization_penalty_neutral>
0

$$$$
ZINC001258443348
                    3D
 Structure written by MMmdl.
 49 49  0  0  1  0            999 V2000
   -3.5697   -1.9399   -0.3820 C   0  0  0  0  0  0
   -4.3702   -0.9258    0.4245 C   0  0  0  0  0  0
   -3.8025    0.4897    0.3081 C   0  0  0  0  0  0
   -2.6405    0.7555    1.2753 C   0  0  0  0  0  0
   -1.8787    2.0369    0.8968 C   0  0  0  0  0  0
   -0.8141    1.7907   -0.2058 C   0  0  1  0  0  0
   -0.5039    3.1177   -0.9283 C   0  0  0  0  0  0
    0.4358    2.9869   -2.1179 C   0  0  0  0  0  0
    1.3604    1.7932    1.0747 C   0  0  0  0  0  0
    2.5455    0.8224    1.1166 C   0  0  0  0  0  0
    2.0106   -0.4846    0.5378 C   0  0  2  0  0  0
    3.0448   -1.1978   -0.1326 O   0  0  0  0  0  0
    2.7817   -2.6000   -0.2491 C   0  0  0  0  0  0
    3.5791   -3.1278   -1.4377 C   0  0  0  0  0  0
    3.2232   -3.3146    1.0258 C   0  0  0  0  0  0
    0.9163    0.0136   -0.4065 C   0  0  0  0  0  0
   -3.5669   -1.6736   -1.4439 H   0  0  0  0  0  0
   -2.5313   -2.0004   -0.0418 H   0  0  0  0  0  0
   -4.0192   -2.9337   -0.2832 H   0  0  0  0  0  0
   -4.4165   -1.2394    1.4733 H   0  0  0  0  0  0
   -5.4005   -0.9284    0.0457 H   0  0  0  0  0  0
   -3.5019    0.6826   -0.7279 H   0  0  0  0  0  0
   -4.6008    1.2067    0.5386 H   0  0  0  0  0  0
   -3.0520    0.8696    2.2853 H   0  0  0  0  0  0
   -1.9600   -0.1005    1.3182 H   0  0  0  0  0  0
   -1.3930    2.4403    1.7946 H   0  0  0  0  0  0
   -2.5986    2.8015    0.5761 H   0  0  0  0  0  0
   -1.2827    1.1386   -0.9537 H   0  0  0  0  0  0
   -0.1158    3.8676   -0.2296 H   0  0  0  0  0  0
   -1.4501    3.5251   -1.3090 H   0  0  0  0  0  0
    0.1117    2.1892   -2.7947 H   0  0  0  0  0  0
    0.4481    3.9231   -2.6876 H   0  0  0  0  0  0
    1.4616    2.7847   -1.8012 H   0  0  0  0  0  0
    1.6763    2.7018    0.5518 H   0  0  0  0  0  0
    1.0545    2.0779    2.0863 H   0  0  0  0  0  0
    3.3744    1.2094    0.5116 H   0  0  0  0  0  0
    2.9237    0.6802    2.1357 H   0  0  0  0  0  0
    1.5746   -1.0788    1.3517 H   0  0  0  0  0  0
    1.7165   -2.7780   -0.4380 H   0  0  0  0  0  0
    3.4458   -4.2086   -1.5579 H   0  0  0  0  0  0
    3.2634   -2.6318   -2.3619 H   0  0  0  0  0  0
    4.6469   -2.9197   -1.3161 H   0  0  0  0  0  0
    4.2722   -3.0960    1.2482 H   0  0  0  0  0  0
    2.6409   -2.9800    1.8886 H   0  0  0  0  0  0
    3.1033   -4.3990    0.9354 H   0  0  0  0  0  0
    1.3443    0.3877   -1.3423 H   0  0  0  0  0  0
    0.2163   -0.7910   -0.6500 H   0  0  0  0  0  0
    0.2800    0.9795    0.4865 N   0  3  2  0  0  0
   -0.1727    0.4608    1.2483 H   0  0  0  0  0  0
  1  2  1  0  0  0
  1 17  1  0  0  0
  1 18  1  0  0  0
  1 19  1  0  0  0
  2  3  1  0  0  0
  2 20  1  0  0  0
  2 21  1  0  0  0
  3  4  1  0  0  0
  3 22  1  0  0  0
  3 23  1  0  0  0
  4  5  1  0  0  0
  4 24  1  0  0  0
  4 25  1  0  0  0
  5  6  1  0  0  0
  5 26  1  0  0  0
  5 27  1  0  0  0
  6  7  1  0  0  0
  6 28  1  0  0  0
  6 48  1  0  0  0
  7  8  1  0  0  0
  7 29  1  0  0  0
  7 30  1  0  0  0
  8 31  1  0  0  0
  8 32  1  0  0  0
  8 33  1  0  0  0
  9 10  1  0  0  0
  9 34  1  0  0  0
  9 35  1  0  0  0
  9 48  1  0  0  0
 10 11  1  0  0  0
 10 36  1  0  0  0
 10 37  1  0  0  0
 11 12  1  0  0  0
 11 16  1  0  0  0
 11 38  1  0  0  0
 12 13  1  0  0  0
 13 14  1  0  0  0
 13 15  1  0  0  0
 13 39  1  0  0  0
 14 40  1  0  0  0
 14 41  1  0  0  0
 14 42  1  0  0  0
 15 43  1  0  0  0
 15 44  1  0  0  0
 15 45  1  0  0  0
 16 46  1  0  0  0
 16 47  1  0  0  0
 16 48  1  0  0  0
 48 49  1  0  0  0
M  CHG  1  48   1
M  END
> <energy>
41.7281

> <chiral flag>
0

> <version>
0

> <i_ionizer_Ion_state_n>
1

> <i_ionizer_Tot_Q>
1

> <s_ionizer_Ion_centers>
48

> <s_ionizer_Ion_types>
N5

> <s_ionizer_Ion_ctrs_in>
9

> <r_ionizer_Ionization_penalty>
0.00148639

> <r_ionizer_Ionization_penalty_charging>
0.00148639

> <r_ionizer_Ionization_penalty_neutral>
0

$$$$
ZINC001258443349
                    3D
 Structure written by MMmdl.
 49 49  0  0  1  0            999 V2000
    1.3169   -3.3847    2.1564 C   0  0  0  0  0  0
    2.6864   -2.7544    2.3615 C   0  0  0  0  0  0
    3.0506   -1.7562    1.2613 C   0  0  0  0  0  0
    2.3606   -0.3985    1.4310 C   0  0  0  0  0  0
    2.6672    0.5358    0.2482 C   0  0  0  0  0  0
    1.6951    0.3593   -0.9453 C   0  0  2  0  0  0
    2.3002    0.9292   -2.2514 C   0  0  0  0  0  0
    3.4811    0.1255   -2.7844 C   0  0  0  0  0  0
    0.1122    1.9348    0.2590 C   0  0  0  0  0  0
   -1.4062    2.1163    0.2532 C   0  0  0  0  0  0
   -1.9555    0.9851   -0.6194 C   0  0  2  0  0  0
   -3.0382    0.2819   -0.0155 O   0  0  0  0  0  0
   -4.2980    0.9622   -0.0409 C   0  0  0  0  0  0
   -5.1942    0.2663    0.9798 C   0  0  0  0  0  0
   -4.9325    0.8927   -1.4274 C   0  0  0  0  0  0
   -0.7545    0.0525   -0.7977 C   0  0  0  0  0  0
    1.1213   -4.1170    2.9463 H   0  0  0  0  0  0
    1.2699   -3.9048    1.1937 H   0  0  0  0  0  0
    0.5182   -2.6378    2.1837 H   0  0  0  0  0  0
    2.7269   -2.2719    3.3447 H   0  0  0  0  0  0
    3.4353   -3.5566    2.3710 H   0  0  0  0  0  0
    2.8200   -2.1844    0.2798 H   0  0  0  0  0  0
    4.1355   -1.5985    1.2880 H   0  0  0  0  0  0
    1.2832   -0.5321    1.5603 H   0  0  0  0  0  0
    2.7297    0.0664    2.3547 H   0  0  0  0  0  0
    3.7038    0.3670   -0.0639 H   0  0  0  0  0  0
    2.6492    1.5762    0.5915 H   0  0  0  0  0  0
    1.5640   -0.7189   -1.1126 H   0  0  0  0  0  0
    2.6039    1.9741   -2.1070 H   0  0  0  0  0  0
    1.5333    0.9276   -3.0374 H   0  0  0  0  0  0
    3.2115   -0.9275   -2.9172 H   0  0  0  0  0  0
    3.7837    0.5201   -3.7584 H   0  0  0  0  0  0
    4.3495    0.1793   -2.1252 H   0  0  0  0  0  0
    0.4022    1.5492    1.2417 H   0  0  0  0  0  0
    0.6254    2.8885    0.0917 H   0  0  0  0  0  0
   -1.8061    2.0893    1.2720 H   0  0  0  0  0  0
   -1.6720    3.0845   -0.1864 H   0  0  0  0  0  0
   -2.2470    1.3842   -1.5986 H   0  0  0  0  0  0
   -4.1732    2.0076    0.2645 H   0  0  0  0  0  0
   -6.1897    0.7204    1.0189 H   0  0  0  0  0  0
   -4.7466    0.3274    1.9789 H   0  0  0  0  0  0
   -5.3007   -0.8009    0.7501 H   0  0  0  0  0  0
   -4.3592    1.4795   -2.1493 H   0  0  0  0  0  0
   -4.9560   -0.1368   -1.8011 H   0  0  0  0  0  0
   -5.9510    1.2927   -1.4209 H   0  0  0  0  0  0
   -0.8416   -0.5118   -1.7327 H   0  0  0  0  0  0
   -0.6835   -0.6664    0.0265 H   0  0  0  0  0  0
    0.3119    1.0262   -0.8823 N   0  3  2  0  0  0
    0.1979    1.5680   -1.7470 H   0  0  0  0  0  0
  1  2  1  0  0  0
  1 17  1  0  0  0
  1 18  1  0  0  0
  1 19  1  0  0  0
  2  3  1  0  0  0
  2 20  1  0  0  0
  2 21  1  0  0  0
  3  4  1  0  0  0
  3 22  1  0  0  0
  3 23  1  0  0  0
  4  5  1  0  0  0
  4 24  1  0  0  0
  4 25  1  0  0  0
  5  6  1  0  0  0
  5 26  1  0  0  0
  5 27  1  0  0  0
  6  7  1  0  0  0
  6 28  1  0  0  0
  6 48  1  0  0  0
  7  8  1  0  0  0
  7 29  1  0  0  0
  7 30  1  0  0  0
  8 31  1  0  0  0
  8 32  1  0  0  0
  8 33  1  0  0  0
  9 10  1  0  0  0
  9 34  1  0  0  0
  9 35  1  0  0  0
  9 48  1  0  0  0
 10 11  1  0  0  0
 10 36  1  0  0  0
 10 37  1  0  0  0
 11 12  1  0  0  0
 11 16  1  0  0  0
 11 38  1  0  0  0
 12 13  1  0  0  0
 13 14  1  0  0  0
 13 15  1  0  0  0
 13 39  1  0  0  0
 14 40  1  0  0  0
 14 41  1  0  0  0
 14 42  1  0  0  0
 15 43  1  0  0  0
 15 44  1  0  0  0
 15 45  1  0  0  0
 16 46  1  0  0  0
 16 47  1  0  0  0
 16 48  1  0  0  0
 48 49  1  0  0  0
M  CHG  1  48   1
M  END
> <energy>
43.1163

> <chiral flag>
0

> <version>
0

> <i_ionizer_Ion_state_n>
1

> <i_ionizer_Tot_Q>
1

> <s_ionizer_Ion_centers>
48

> <s_ionizer_Ion_types>
N5

> <s_ionizer_Ion_ctrs_in>
9

> <r_ionizer_Ionization_penalty>
0.00148639

> <r_ionizer_Ionization_penalty_charging>
0.00148639

> <r_ionizer_Ionization_penalty_neutral>
0

$$$$
ZINC001258443350
                    3D
 Structure written by MMmdl.
 49 49  0  0  1  0            999 V2000
   -0.2920   -3.4502    1.5139 C   0  0  0  0  0  0
   -1.5340   -2.9129    0.8217 C   0  0  0  0  0  0
   -1.2400   -1.6052    0.0825 C   0  0  0  0  0  0
   -2.4889   -1.0837   -0.6250 C   0  0  0  0  0  0
   -2.3067    0.1895   -1.4582 C   0  0  0  0  0  0
   -1.8249    1.5095   -0.7916 C   0  0  1  0  0  0
   -2.8119    2.0136    0.2960 C   0  0  0  0  0  0
   -2.6893    1.3972    1.6856 C   0  0  0  0  0  0
    0.0579    2.8196    0.1218 C   0  0  0  0  0  0
    1.5829    2.7324    0.0841 C   0  0  0  0  0  0
    1.9016    1.4666   -0.7054 C   0  0  1  0  0  0
    2.3188    0.4594    0.2270 O   0  0  0  0  0  0
    3.4089   -0.3545   -0.2051 C   0  0  0  0  0  0
    3.8786   -1.1486    1.0101 C   0  0  0  0  0  0
    2.9937   -1.3070   -1.3188 C   0  0  0  0  0  0
    0.5602    1.1047   -1.3520 C   0  0  0  0  0  0
    0.5002   -3.6658    0.7907 H   0  0  0  0  0  0
   -0.5288   -4.3758    2.0475 H   0  0  0  0  0  0
    0.0946   -2.7279    2.2390 H   0  0  0  0  0  0
   -1.9091   -3.6652    0.1179 H   0  0  0  0  0  0
   -2.3189   -2.7456    1.5690 H   0  0  0  0  0  0
   -0.8684   -0.8701    0.8022 H   0  0  0  0  0  0
   -0.4464   -1.7835   -0.6515 H   0  0  0  0  0  0
   -3.3022   -0.9445    0.0924 H   0  0  0  0  0  0
   -2.8432   -1.8678   -1.3087 H   0  0  0  0  0  0
   -1.6545   -0.0474   -2.3085 H   0  0  0  0  0  0
   -3.2830    0.4003   -1.9197 H   0  0  0  0  0  0
   -1.8952    2.2506   -1.6025 H   0  0  0  0  0  0
   -2.6786    3.0985    0.4069 H   0  0  0  0  0  0
   -3.8428    1.8822   -0.0585 H   0  0  0  0  0  0
   -2.9872    0.3494    1.7022 H   0  0  0  0  0  0
   -3.3487    1.9271    2.3809 H   0  0  0  0  0  0
   -1.6748    1.4658    2.0849 H   0  0  0  0  0  0
   -0.2685    3.6251   -0.5489 H   0  0  0  0  0  0
   -0.2861    3.0613    1.1329 H   0  0  0  0  0  0
    2.0033    2.6971    1.0956 H   0  0  0  0  0  0
    1.9844    3.6139   -0.4275 H   0  0  0  0  0  0
    2.6813    1.6554   -1.4531 H   0  0  0  0  0  0
    4.2331    0.2890   -0.5370 H   0  0  0  0  0  0
    4.7468   -1.7695    0.7686 H   0  0  0  0  0  0
    3.0795   -1.7959    1.3910 H   0  0  0  0  0  0
    4.1508   -0.4729    1.8278 H   0  0  0  0  0  0
    2.7381   -0.7571   -2.2287 H   0  0  0  0  0  0
    2.1069   -1.8832   -1.0310 H   0  0  0  0  0  0
    3.8018   -2.0035   -1.5640 H   0  0  0  0  0  0
    0.5013    0.0390   -1.5803 H   0  0  0  0  0  0
    0.4253    1.6790   -2.2775 H   0  0  0  0  0  0
   -0.3838    1.5016   -0.3082 N   0  3  2  0  0  0
   -0.3164    0.8451    0.4783 H   0  0  0  0  0  0
  1  2  1  0  0  0
  1 17  1  0  0  0
  1 18  1  0  0  0
  1 19  1  0  0  0
  2  3  1  0  0  0
  2 20  1  0  0  0
  2 21  1  0  0  0
  3  4  1  0  0  0
  3 22  1  0  0  0
  3 23  1  0  0  0
  4  5  1  0  0  0
  4 24  1  0  0  0
  4 25  1  0  0  0
  5  6  1  0  0  0
  5 26  1  0  0  0
  5 27  1  0  0  0
  6  7  1  0  0  0
  6 28  1  0  0  0
  6 48  1  0  0  0
  7  8  1  0  0  0
  7 29  1  0  0  0
  7 30  1  0  0  0
  8 31  1  0  0  0
  8 32  1  0  0  0
  8 33  1  0  0  0
  9 10  1  0  0  0
  9 34  1  0  0  0
  9 35  1  0  0  0
  9 48  1  0  0  0
 10 11  1  0  0  0
 10 36  1  0  0  0
 10 37  1  0  0  0
 11 12  1  0  0  0
 11 16  1  0  0  0
 11 38  1  0  0  0
 12 13  1  0  0  0
 13 14  1  0  0  0
 13 15  1  0  0  0
 13 39  1  0  0  0
 14 40  1  0  0  0
 14 41  1  0  0  0
 14 42  1  0  0  0
 15 43  1  0  0  0
 15 44  1  0  0  0
 15 45  1  0  0  0
 16 46  1  0  0  0
 16 47  1  0  0  0
 16 48  1  0  0  0
 48 49  1  0  0  0
M  CHG  1  48   1
M  END
> <energy>
42.6726

> <chiral flag>
0

> <version>
0

> <i_ionizer_Ion_state_n>
1

> <i_ionizer_Tot_Q>
1

> <s_ionizer_Ion_centers>
48

> <s_ionizer_Ion_types>
N5

> <s_ionizer_Ion_ctrs_in>
9

> <r_ionizer_Ionization_penalty>
0.00148639

> <r_ionizer_Ionization_penalty_charging>
0.00148639

> <r_ionizer_Ionization_penalty_neutral>
0

$$$$
ZINC001258443351
                    3D
 Structure written by MMmdl.
 49 49  0  0  1  0            999 V2000
    1.4008   -0.6080   -4.4489 C   0  0  0  0  0  0
    0.0683   -1.2792   -4.1471 C   0  0  0  0  0  0
   -0.3419   -1.1241   -2.6844 C   0  0  0  0  0  0
   -0.9919    0.2328   -2.3992 C   0  0  0  0  0  0
   -1.1280    0.4860   -0.8880 C   0  0  0  0  0  0
   -0.3147    1.6998   -0.3610 C   0  0  2  0  0  0
    1.1993    1.5198   -0.6517 C   0  0  0  0  0  0
    2.0845    2.6671   -0.1715 C   0  0  0  0  0  0
   -1.9540    2.2163    1.4297 C   0  0  0  0  0  0
   -2.2784    1.0302    2.3331 C   0  0  0  0  0  0
   -1.1222   -0.0440    2.2150 C   0  0  3  0  0  0
   -0.2596   -0.8908    3.0365 O   0  0  0  0  0  0
    0.3189   -1.9573    2.2648 C   0  0  0  0  0  0
    1.8336   -1.9259    2.4436 C   0  0  0  0  0  0
   -0.2403   -3.2706    2.7908 C   0  0  0  0  0  0
   -0.0675    1.0793    2.0587 C   0  0  0  0  0  0
    1.6758   -0.7700   -5.4970 H   0  0  0  0  0  0
    2.1988   -1.0248   -3.8239 H   0  0  0  0  0  0
    1.3563    0.4722   -4.2718 H   0  0  0  0  0  0
   -0.7044   -0.8724   -4.8095 H   0  0  0  0  0  0
    0.1652   -2.3462   -4.3789 H   0  0  0  0  0  0
    0.5240   -1.2892   -2.0307 H   0  0  0  0  0  0
   -1.0738   -1.9060   -2.4465 H   0  0  0  0  0  0
   -0.4542    1.0471   -2.8933 H   0  0  0  0  0  0
   -1.9934    0.2226   -2.8521 H   0  0  0  0  0  0
   -2.1948    0.6381   -0.6884 H   0  0  0  0  0  0
   -0.8459   -0.4180   -0.3389 H   0  0  0  0  0  0
   -0.6383    2.5727   -0.9439 H   0  0  0  0  0  0
    1.3598    1.4293   -1.7308 H   0  0  0  0  0  0
    1.5665    0.5838   -0.2149 H   0  0  0  0  0  0
    3.1269    2.4767   -0.4576 H   0  0  0  0  0  0
    1.7769    3.6113   -0.6290 H   0  0  0  0  0  0
    2.0617    2.7735    0.9161 H   0  0  0  0  0  0
   -2.6390    2.3074    0.5806 H   0  0  0  0  0  0
   -2.0688    3.1437    2.0035 H   0  0  0  0  0  0
   -3.2262    0.5900    1.9973 H   0  0  0  0  0  0
   -2.4110    1.3879    3.3684 H   0  0  0  0  0  0
   -1.7977   -0.4323    2.9900 H   0  0  0  0  0  0
    0.0785   -1.8718    1.1955 H   0  0  0  0  0  0
    2.2983   -2.8708    2.1407 H   0  0  0  0  0  0
    2.2712   -1.1302    1.8297 H   0  0  0  0  0  0
    2.0997   -1.7097    3.4849 H   0  0  0  0  0  0
   -0.0538   -3.3747    3.8656 H   0  0  0  0  0  0
   -1.3255   -3.2897    2.6616 H   0  0  0  0  0  0
    0.1976   -4.1272    2.2642 H   0  0  0  0  0  0
    0.9274    0.7035    1.8051 H   0  0  0  0  0  0
    0.0901    1.5981    3.0210 H   0  0  0  0  0  0
   -0.5554    2.0801    1.1145 N   0  3  1  0  0  0
   -0.0775    2.9718    1.2900 H   0  0  0  0  0  0
  1  2  1  0  0  0
  1 17  1  0  0  0
  1 18  1  0  0  0
  1 19  1  0  0  0
  2  3  1  0  0  0
  2 20  1  0  0  0
  2 21  1  0  0  0
  3  4  1  0  0  0
  3 22  1  0  0  0
  3 23  1  0  0  0
  4  5  1  0  0  0
  4 24  1  0  0  0
  4 25  1  0  0  0
  5  6  1  0  0  0
  5 26  1  0  0  0
  5 27  1  0  0  0
  6  7  1  0  0  0
  6 28  1  0  0  0
  6 48  1  0  0  0
  7  8  1  0  0  0
  7 29  1  0  0  0
  7 30  1  0  0  0
  8 31  1  0  0  0
  8 32  1  0  0  0
  8 33  1  0  0  0
  9 10  1  0  0  0
  9 34  1  0  0  0
  9 35  1  0  0  0
  9 48  1  0  0  0
 10 11  1  0  0  0
 10 36  1  0  0  0
 10 37  1  0  0  0
 11 12  1  0  0  0
 11 16  1  0  0  0
 11 38  1  0  0  0
 12 13  1  0  0  0
 13 14  1  0  0  0
 13 15  1  0  0  0
 13 39  1  0  0  0
 14 40  1  0  0  0
 14 41  1  0  0  0
 14 42  1  0  0  0
 15 43  1  0  0  0
 15 44  1  0  0  0
 15 45  1  0  0  0
 16 46  1  0  0  0
 16 47  1  0  0  0
 16 48  1  0  0  0
 48 49  1  0  0  0
M  CHG  1  48   1
M  END
> <energy>
134.162

> <chiral flag>
0

> <version>
0

> <i_ionizer_Ion_state_n>
1

> <i_ionizer_Tot_Q>
1

> <s_ionizer_Ion_centers>
48

> <s_ionizer_Ion_types>
N5

> <s_ionizer_Ion_ctrs_in>
9

> <r_ionizer_Ionization_penalty>
0.00148639

> <r_ionizer_Ionization_penalty_charging>
0.00148639

> <r_ionizer_Ionization_penalty_neutral>
0

$$$$
ZINC001258443630
                    3D
 Structure written by MMmdl.
 43 44  0  0  1  0            999 V2000
   -3.9770   -0.9383    1.4877 C   0  0  0  0  0  0
   -4.2126   -0.7014    0.0029 C   0  0  0  0  0  0
   -2.9333   -0.3106   -0.7371 C   0  0  0  0  0  0
   -1.9925   -1.4946   -1.0020 C   0  0  0  0  0  0
   -0.5833   -1.0082   -1.3964 C   0  0  0  0  0  0
    0.2816   -0.6428   -0.1473 C   0  0  1  0  0  0
    0.6992   -1.9780    0.5436 C   0  0  0  0  0  0
    0.5094   -1.9583    2.0550 C   0  0  0  0  0  0
    2.2479    0.5720    0.7292 C   0  0  0  0  0  0
    3.2330    1.7156    0.4293 C   0  0  2  0  0  0
    2.4804    3.0412    0.1234 C   0  0  0  0  0  0
    2.2826    2.4162   -1.2844 C   0  0  1  0  0  0
    3.6909    1.7843   -1.0600 C   0  0  0  0  0  0
    1.1331    1.3951   -1.2781 C   0  0  0  0  0  0
   -4.9327   -1.0862    1.9997 H   0  0  0  0  0  0
   -3.3629   -1.8262    1.6637 H   0  0  0  0  0  0
   -3.4796   -0.0794    1.9514 H   0  0  0  0  0  0
   -4.9364    0.1155   -0.0994 H   0  0  0  0  0  0
   -4.6648   -1.5906   -0.4496 H   0  0  0  0  0  0
   -2.4198    0.4764   -0.1733 H   0  0  0  0  0  0
   -3.2096    0.1335   -1.7025 H   0  0  0  0  0  0
   -2.4060   -2.0898   -1.8259 H   0  0  0  0  0  0
   -1.9434   -2.1528   -0.1311 H   0  0  0  0  0  0
   -0.7127   -0.1610   -2.0761 H   0  0  0  0  0  0
   -0.0729   -1.7889   -1.9777 H   0  0  0  0  0  0
   -0.3559   -0.0714    0.5397 H   0  0  0  0  0  0
    1.7376   -2.2370    0.3008 H   0  0  0  0  0  0
    0.1114   -2.8198    0.1577 H   0  0  0  0  0  0
    0.7162   -2.9502    2.4692 H   0  0  0  0  0  0
   -0.5214   -1.6988    2.3189 H   0  0  0  0  0  0
    1.1813   -1.2477    2.5427 H   0  0  0  0  0  0
    1.5916    0.8780    1.5527 H   0  0  0  0  0  0
    2.8283   -0.2944    1.0658 H   0  0  0  0  0  0
    4.0270    1.8110    1.1775 H   0  0  0  0  0  0
    1.5760    3.2400    0.7059 H   0  0  0  0  0  0
    3.1097    3.9403    0.1376 H   0  0  0  0  0  0
    2.2101    3.1427   -2.1001 H   0  0  0  0  0  0
    3.8914    0.8324   -1.5609 H   0  0  0  0  0  0
    4.5310    2.4621   -1.2491 H   0  0  0  0  0  0
    0.2192    1.8806   -0.9145 H   0  0  0  0  0  0
    0.9618    1.0907   -2.3158 H   0  0  0  0  0  0
    1.5066    0.1727   -0.5019 N   0  3  2  0  0  0
    2.1235   -0.4072   -1.0827 H   0  0  0  0  0  0
  1  2  1  0  0  0
  1 15  1  0  0  0
  1 16  1  0  0  0
  1 17  1  0  0  0
  2  3  1  0  0  0
  2 18  1  0  0  0
  2 19  1  0  0  0
  3  4  1  0  0  0
  3 20  1  0  0  0
  3 21  1  0  0  0
  4  5  1  0  0  0
  4 22  1  0  0  0
  4 23  1  0  0  0
  5  6  1  0  0  0
  5 24  1  0  0  0
  5 25  1  0  0  0
  6  7  1  0  0  0
  6 26  1  0  0  0
  6 42  1  0  0  0
  7  8  1  0  0  0
  7 27  1  0  0  0
  7 28  1  0  0  0
  8 29  1  0  0  0
  8 30  1  0  0  0
  8 31  1  0  0  0
  9 10  1  0  0  0
  9 32  1  0  0  0
  9 33  1  0  0  0
  9 42  1  0  0  0
 10 11  1  0  0  0
 10 13  1  0  0  0
 10 34  1  0  0  0
 11 12  1  0  0  0
 11 35  1  0  0  0
 11 36  1  0  0  0
 12 13  1  0  0  0
 12 14  1  0  0  0
 12 37  1  0  0  0
 13 38  1  0  0  0
 13 39  1  0  0  0
 14 40  1  0  0  0
 14 41  1  0  0  0
 14 42  1  0  0  0
 42 43  1  0  0  0
M  CHG  1  42   1
M  END
> <energy>
39.48

> <chiral flag>
0

> <version>
0

> <i_ionizer_Ion_state_n>
1

> <i_ionizer_Tot_Q>
1

> <s_ionizer_Ion_centers>
42

> <s_ionizer_Ion_types>
N5

> <s_ionizer_Ion_ctrs_in>
9

> <r_ionizer_Ionization_penalty>
0.00148639

> <r_ionizer_Ionization_penalty_charging>
0.00148639

> <r_ionizer_Ionization_penalty_neutral>
0

$$$$
ZINC001258443631
                    3D
 Structure written by MMmdl.
 43 44  0  0  1  0            999 V2000
   -4.8022    0.1933    0.7562 C   0  0  0  0  0  0
   -3.8162   -0.7052    0.0253 C   0  0  0  0  0  0
   -2.6935    0.1098   -0.6205 C   0  0  0  0  0  0
   -1.6837   -0.7585   -1.3783 C   0  0  0  0  0  0
   -0.8072   -1.6211   -0.4531 C   0  0  0  0  0  0
    0.7119   -1.3247   -0.5679 C   0  0  2  0  0  0
    1.4810   -2.3589    0.2888 C   0  0  0  0  0  0
    2.9964   -2.2728    0.1906 C   0  0  0  0  0  0
    0.9484    0.5023    1.1401 C   0  0  0  0  0  0
    1.3004    1.9969    1.2550 C   0  0  1  0  0  0
    2.7726    2.2594    0.8223 C   0  0  0  0  0  0
    2.2009    2.1888   -0.6235 C   0  0  2  0  0  0
    0.9227    2.8422   -0.0045 C   0  0  0  0  0  0
    1.9987    0.7325   -1.0758 C   0  0  0  0  0  0
   -5.2665    0.9080    0.0698 H   0  0  0  0  0  0
   -4.3040    0.7552    1.5524 H   0  0  0  0  0  0
   -5.5968   -0.4063    1.2113 H   0  0  0  0  0  0
   -3.4076   -1.4318    0.7354 H   0  0  0  0  0  0
   -4.3512   -1.2735   -0.7445 H   0  0  0  0  0  0
   -2.1739    0.7036    0.1408 H   0  0  0  0  0  0
   -3.1362    0.8218   -1.3283 H   0  0  0  0  0  0
   -1.0649   -0.1079   -2.0070 H   0  0  0  0  0  0
   -2.2265   -1.4144   -2.0709 H   0  0  0  0  0  0
   -0.9756   -2.6723   -0.7226 H   0  0  0  0  0  0
   -1.1231   -1.5280    0.5926 H   0  0  0  0  0  0
    0.9775   -1.5114   -1.6181 H   0  0  0  0  0  0
    1.1877   -3.3650   -0.0391 H   0  0  0  0  0  0
    1.1807   -2.2912    1.3413 H   0  0  0  0  0  0
    3.3808   -1.3574    0.6488 H   0  0  0  0  0  0
    3.3248   -2.3101   -0.8527 H   0  0  0  0  0  0
    3.4526   -3.1169    0.7188 H   0  0  0  0  0  0
    1.6537   -0.0712    1.7501 H   0  0  0  0  0  0
   -0.0508    0.3458    1.5595 H   0  0  0  0  0  0
    1.0235    2.4296    2.2202 H   0  0  0  0  0  0
    3.5118    1.5025    1.0993 H   0  0  0  0  0  0
    3.1613    3.2441    1.1095 H   0  0  0  0  0  0
    2.7395    2.7941   -1.3580 H   0  0  0  0  0  0
   -0.0334    2.6184   -0.4853 H   0  0  0  0  0  0
    0.9929    3.9275    0.1392 H   0  0  0  0  0  0
    2.9539    0.2007   -1.0282 H   0  0  0  0  0  0
    1.6783    0.7336   -2.1242 H   0  0  0  0  0  0
    0.8504    0.1582   -0.3200 N   0  3  1  0  0  0
   -0.0037    0.6020   -0.6774 H   0  0  0  0  0  0
  1  2  1  0  0  0
  1 15  1  0  0  0
  1 16  1  0  0  0
  1 17  1  0  0  0
  2  3  1  0  0  0
  2 18  1  0  0  0
  2 19  1  0  0  0
  3  4  1  0  0  0
  3 20  1  0  0  0
  3 21  1  0  0  0
  4  5  1  0  0  0
  4 22  1  0  0  0
  4 23  1  0  0  0
  5  6  1  0  0  0
  5 24  1  0  0  0
  5 25  1  0  0  0
  6  7  1  0  0  0
  6 26  1  0  0  0
  6 42  1  0  0  0
  7  8  1  0  0  0
  7 27  1  0  0  0
  7 28  1  0  0  0
  8 29  1  0  0  0
  8 30  1  0  0  0
  8 31  1  0  0  0
  9 10  1  0  0  0
  9 32  1  0  0  0
  9 33  1  0  0  0
  9 42  1  0  0  0
 10 11  1  0  0  0
 10 13  1  0  0  0
 10 34  1  0  0  0
 11 12  1  0  0  0
 11 35  1  0  0  0
 11 36  1  0  0  0
 12 13  1  0  0  0
 12 14  1  0  0  0
 12 37  1  0  0  0
 13 38  1  0  0  0
 13 39  1  0  0  0
 14 40  1  0  0  0
 14 41  1  0  0  0
 14 42  1  0  0  0
 42 43  1  0  0  0
M  CHG  1  42   1
M  END
> <energy>
36.1141

> <chiral flag>
0

> <version>
0

> <i_ionizer_Ion_state_n>
1

> <i_ionizer_Tot_Q>
1

> <s_ionizer_Ion_centers>
42

> <s_ionizer_Ion_types>
N5

> <s_ionizer_Ion_ctrs_in>
9

> <r_ionizer_Ionization_penalty>
0.00148639

> <r_ionizer_Ionization_penalty_charging>
0.00148639

> <r_ionizer_Ionization_penalty_neutral>
0

$$$$
ZINC001258443644
                    3D
 Structure written by MMmdl.
 44 45  0  0  1  0            999 V2000
   -4.7882    1.4446    0.4610 C   0  0  0  0  0  0
   -3.3492    0.9583    0.4280 C   0  0  0  0  0  0
   -2.9012    0.5869   -0.9890 C   0  0  0  0  0  0
   -1.4327    0.1409   -1.0159 C   0  0  0  0  0  0
   -1.2472   -1.3251   -0.5985 C   0  0  0  0  0  0
    0.1886   -1.7637   -0.1917 C   0  0  2  0  0  0
    0.3397   -2.0061    1.3249 C   0  0  0  0  0  0
   -0.2925   -3.3078    1.7980 C   0  0  0  0  0  0
    1.2583   -0.9427   -0.7648 N   0  0  0  0  0  0
    1.8035   -1.2010   -2.0073 C   0  0  0  0  0  0
    2.7286   -0.2206   -2.2997 C   0  0  0  0  0  0
    2.7712    0.6561   -1.1901 C   0  0  0  0  0  0
    1.8973    0.1570   -0.2400 C   0  0  0  0  0  0
    1.6876    0.8203    1.0862 C   0  0  0  0  0  0
    2.7039    1.9741    1.2795 C   0  0  0  0  0  0
    3.5944    1.8883   -0.9894 C   0  0  0  0  0  0
   -4.9224    2.3254   -0.1745 H   0  0  0  0  0  0
   -5.0703    1.7206    1.4822 H   0  0  0  0  0  0
   -5.4728    0.6639    0.1183 H   0  0  0  0  0  0
   -2.7017    1.7509    0.8228 H   0  0  0  0  0  0
   -3.2447    0.0979    1.0987 H   0  0  0  0  0  0
   -3.0040    1.4690   -1.6345 H   0  0  0  0  0  0
   -3.5511   -0.1948   -1.4039 H   0  0  0  0  0  0
   -0.8537    0.8121   -0.3777 H   0  0  0  0  0  0
   -1.0534    0.2640   -2.0396 H   0  0  0  0  0  0
   -1.5564   -1.9432   -1.4559 H   0  0  0  0  0  0
   -1.9513   -1.5773    0.2027 H   0  0  0  0  0  0
    0.3418   -2.7517   -0.6546 H   0  0  0  0  0  0
   -0.1007   -1.1764    1.8885 H   0  0  0  0  0  0
    1.4035   -2.0597    1.5879 H   0  0  0  0  0  0
    0.1895   -4.1668    1.3213 H   0  0  0  0  0  0
   -1.3620   -3.3500    1.5813 H   0  0  0  0  0  0
   -0.1638   -3.4111    2.8800 H   0  0  0  0  0  0
    1.4753   -2.0527   -2.5895 H   0  0  0  0  0  0
    3.2937   -0.1463   -3.2182 H   0  0  0  0  0  0
    1.8306    0.1169    1.9094 H   0  0  0  0  0  0
    0.6712    1.2202    1.1430 H   0  0  0  0  0  0
    3.6427    1.5741    1.6840 H   0  0  0  0  0  0
    2.3085    2.6564    2.0397 H   0  0  0  0  0  0
    4.6161    1.6075   -0.7041 H   0  0  0  0  0  0
    3.6481    2.4607   -1.9206 H   0  0  0  0  0  0
    2.9848    2.7535    0.0516 N   0  3  0  0  0  0
    2.1063    3.1453   -0.3075 H   0  0  0  0  0  0
    3.6330    3.5170    0.2777 H   0  0  0  0  0  0
  1  2  1  0  0  0
  1 17  1  0  0  0
  1 18  1  0  0  0
  1 19  1  0  0  0
  2  3  1  0  0  0
  2 20  1  0  0  0
  2 21  1  0  0  0
  3  4  1  0  0  0
  3 22  1  0  0  0
  3 23  1  0  0  0
  4  5  1  0  0  0
  4 24  1  0  0  0
  4 25  1  0  0  0
  5  6  1  0  0  0
  5 26  1  0  0  0
  5 27  1  0  0  0
  6  7  1  0  0  0
  6  9  1  0  0  0
  6 28  1  0  0  0
  7  8  1  0  0  0
  7 29  1  0  0  0
  7 30  1  0  0  0
  8 31  1  0  0  0
  8 32  1  0  0  0
  8 33  1  0  0  0
  9 10  1  0  0  0
  9 13  1  0  0  0
 10 11  2  0  0  0
 10 34  1  0  0  0
 11 12  1  0  0  0
 11 35  1  0  0  0
 12 13  2  0  0  0
 12 16  1  0  0  0
 13 14  1  0  0  0
 14 15  1  0  0  0
 14 36  1  0  0  0
 14 37  1  0  0  0
 15 38  1  0  0  0
 15 39  1  0  0  0
 15 42  1  0  0  0
 16 40  1  0  0  0
 16 41  1  0  0  0
 16 42  1  0  0  0
 42 43  1  0  0  0
 42 44  1  0  0  0
M  CHG  1  42   1
M  END
> <energy>
43.429

> <chiral flag>
0

> <version>
0

> <i_ionizer_Ion_state_n>
1

> <i_ionizer_Tot_Q>
1

> <s_ionizer_Ion_centers>
42

> <s_ionizer_Ion_types>
N5

> <s_ionizer_Ion_ctrs_in>
16

> <r_ionizer_Ionization_penalty>
0.000148807

> <r_ionizer_Ionization_penalty_charging>
0.000148807

> <r_ionizer_Ionization_penalty_neutral>
0

$$$$
ZINC001258443645
                    3D
 Structure written by MMmdl.
 44 45  0  0  1  0            999 V2000
   -4.6304    2.7052    0.1174 C   0  0  0  0  0  0
   -3.5582    1.7011    0.5095 C   0  0  0  0  0  0
   -3.7520    0.3649   -0.2108 C   0  0  0  0  0  0
   -2.6528   -0.6507    0.1168 C   0  0  0  0  0  0
   -1.3406   -0.3744   -0.6261 C   0  0  0  0  0  0
   -0.1443   -1.1711   -0.0612 C   0  0  1  0  0  0
   -0.2991   -2.7018   -0.1940 C   0  0  0  0  0  0
    0.8037   -3.4701    0.5291 C   0  0  0  0  0  0
    1.0999   -0.6712   -0.6609 N   0  0  0  0  0  0
    1.5064   -0.8868   -1.9579 C   0  0  0  0  0  0
    2.7180   -0.2571   -2.1497 C   0  0  0  0  0  0
    3.0554    0.3847   -0.9349 C   0  0  0  0  0  0
    2.0278    0.1260   -0.0458 C   0  0  0  0  0  0
    1.9976    0.6460    1.3511 C   0  0  0  0  0  0
    3.1104    1.7124    1.5133 C   0  0  0  0  0  0
    4.2382    1.2370   -0.5939 C   0  0  0  0  0  0
   -4.5813    2.9290   -0.9526 H   0  0  0  0  0  0
   -5.6315    2.3256    0.3451 H   0  0  0  0  0  0
   -4.4914    3.6420    0.6659 H   0  0  0  0  0  0
   -3.5994    1.5411    1.5935 H   0  0  0  0  0  0
   -2.5768    2.1305    0.2829 H   0  0  0  0  0  0
   -3.8117    0.5185   -1.2942 H   0  0  0  0  0  0
   -4.7148   -0.0584    0.1023 H   0  0  0  0  0  0
   -2.4843   -0.6738    1.2002 H   0  0  0  0  0  0
   -3.0178   -1.6439   -0.1677 H   0  0  0  0  0  0
   -1.4767   -0.5978   -1.6915 H   0  0  0  0  0  0
   -1.1023    0.6945   -0.5669 H   0  0  0  0  0  0
   -0.0778   -0.9481    1.0103 H   0  0  0  0  0  0
   -0.3212   -3.0038   -1.2472 H   0  0  0  0  0  0
   -1.2530   -3.0205    0.2417 H   0  0  0  0  0  0
    0.6305   -4.5479    0.4454 H   0  0  0  0  0  0
    0.8205   -3.2138    1.5931 H   0  0  0  0  0  0
    1.7910   -3.2580    0.1071 H   0  0  0  0  0  0
    0.9043   -1.4699   -2.6421 H   0  0  0  0  0  0
    3.2851   -0.2480   -3.0712 H   0  0  0  0  0  0
    2.1790   -0.1835    2.0439 H   0  0  0  0  0  0
    1.0260    1.0900    1.5886 H   0  0  0  0  0  0
    3.2831    1.8841    2.5812 H   0  0  0  0  0  0
    2.7787    2.6720    1.0932 H   0  0  0  0  0  0
    5.1539    0.8158   -1.0223 H   0  0  0  0  0  0
    4.1095    2.2412   -1.0124 H   0  0  0  0  0  0
    4.3962    1.3153    0.8816 N   0  3  0  0  0  0
    5.1156    2.0115    1.1096 H   0  0  0  0  0  0
    4.6820    0.3973    1.2417 H   0  0  0  0  0  0
  1  2  1  0  0  0
  1 17  1  0  0  0
  1 18  1  0  0  0
  1 19  1  0  0  0
  2  3  1  0  0  0
  2 20  1  0  0  0
  2 21  1  0  0  0
  3  4  1  0  0  0
  3 22  1  0  0  0
  3 23  1  0  0  0
  4  5  1  0  0  0
  4 24  1  0  0  0
  4 25  1  0  0  0
  5  6  1  0  0  0
  5 26  1  0  0  0
  5 27  1  0  0  0
  6  7  1  0  0  0
  6  9  1  0  0  0
  6 28  1  0  0  0
  7  8  1  0  0  0
  7 29  1  0  0  0
  7 30  1  0  0  0
  8 31  1  0  0  0
  8 32  1  0  0  0
  8 33  1  0  0  0
  9 10  1  0  0  0
  9 13  1  0  0  0
 10 11  2  0  0  0
 10 34  1  0  0  0
 11 12  1  0  0  0
 11 35  1  0  0  0
 12 13  2  0  0  0
 12 16  1  0  0  0
 13 14  1  0  0  0
 14 15  1  0  0  0
 14 36  1  0  0  0
 14 37  1  0  0  0
 15 38  1  0  0  0
 15 39  1  0  0  0
 15 42  1  0  0  0
 16 40  1  0  0  0
 16 41  1  0  0  0
 16 42  1  0  0  0
 42 43  1  0  0  0
 42 44  1  0  0  0
M  CHG  1  42   1
M  END
> <energy>
32.0456

> <chiral flag>
0

> <version>
0

> <i_ionizer_Ion_state_n>
1

> <i_ionizer_Tot_Q>
1

> <s_ionizer_Ion_centers>
42

> <s_ionizer_Ion_types>
N5

> <s_ionizer_Ion_ctrs_in>
16

> <r_ionizer_Ionization_penalty>
0.000148807

> <r_ionizer_Ionization_penalty_charging>
0.000148807

> <r_ionizer_Ionization_penalty_neutral>
0

$$$$
ZINC001258443674
                    3D
 Structure written by MMmdl.
 39 40  0  0  1  0            999 V2000
   -4.9729    0.7448    0.6370 C   0  0  0  0  0  0
   -3.8031    1.0925   -0.2702 C   0  0  0  0  0  0
   -2.7606   -0.0210   -0.2767 C   0  0  0  0  0  0
   -1.6238    0.2787   -1.2595 C   0  0  0  0  0  0
   -0.5128   -0.7782   -1.1831 C   0  0  0  0  0  0
    0.4188   -0.6192    0.0511 C   0  0  1  0  0  0
    1.2268   -1.9136    0.3146 C   0  0  0  0  0  0
    0.3712   -3.0114    0.9420 C   0  0  0  0  0  0
    1.9121    1.0354    1.1793 C   0  0  0  0  0  0
    3.2753    1.3814    0.7316 C   0  0  0  0  0  0
    4.3584    1.8724    1.4029 N   0  0  0  0  0  0
    5.3361    1.9990    0.5215 C   0  0  0  0  0  0
    4.9820    1.5133   -1.1132 S   0  0  0  0  0  0
    3.4464    1.1265   -0.5913 C   0  0  0  0  0  0
    2.2463    0.5638   -1.2148 C   0  0  0  0  0  0
   -4.6398    0.6100    1.6721 H   0  0  0  0  0  0
   -5.4583   -0.1809    0.3105 H   0  0  0  0  0  0
   -5.7213    1.5434    0.6166 H   0  0  0  0  0  0
   -4.1774    1.2649   -1.2858 H   0  0  0  0  0  0
   -3.3449    2.0284    0.0734 H   0  0  0  0  0  0
   -2.3720   -0.1479    0.7388 H   0  0  0  0  0  0
   -3.2372   -0.9690   -0.5573 H   0  0  0  0  0  0
   -2.0368    0.2770   -2.2772 H   0  0  0  0  0  0
   -1.2218    1.2841   -1.0857 H   0  0  0  0  0  0
    0.0777   -0.7288   -2.1062 H   0  0  0  0  0  0
   -0.9754   -1.7714   -1.1932 H   0  0  0  0  0  0
   -0.2190   -0.4541    0.9277 H   0  0  0  0  0  0
    2.0557   -1.7222    1.0048 H   0  0  0  0  0  0
    1.6699   -2.2979   -0.6112 H   0  0  0  0  0  0
   -0.0857   -2.6649    1.8769 H   0  0  0  0  0  0
    0.9926   -3.8827    1.1756 H   0  0  0  0  0  0
   -0.4267   -3.3423    0.2706 H   0  0  0  0  0  0
    1.9420    0.2599    1.9519 H   0  0  0  0  0  0
    1.3848    1.9123    1.5663 H   0  0  0  0  0  0
    6.3147    2.3806    0.7846 H   0  0  0  0  0  0
    2.4458   -0.4421   -1.5943 H   0  0  0  0  0  0
    1.8830    1.1925   -2.0329 H   0  0  0  0  0  0
    1.2186    0.6675   -0.0999 N   0  3  1  0  0  0
    0.5614    1.4198   -0.3376 H   0  0  0  0  0  0
  1  2  1  0  0  0
  1 16  1  0  0  0
  1 17  1  0  0  0
  1 18  1  0  0  0
  2  3  1  0  0  0
  2 19  1  0  0  0
  2 20  1  0  0  0
  3  4  1  0  0  0
  3 21  1  0  0  0
  3 22  1  0  0  0
  4  5  1  0  0  0
  4 23  1  0  0  0
  4 24  1  0  0  0
  5  6  1  0  0  0
  5 25  1  0  0  0
  5 26  1  0  0  0
  6  7  1  0  0  0
  6 27  1  0  0  0
  6 38  1  0  0  0
  7  8  1  0  0  0
  7 28  1  0  0  0
  7 29  1  0  0  0
  8 30  1  0  0  0
  8 31  1  0  0  0
  8 32  1  0  0  0
  9 10  1  0  0  0
  9 33  1  0  0  0
  9 34  1  0  0  0
  9 38  1  0  0  0
 10 11  1  0  0  0
 10 14  2  0  0  0
 11 12  2  0  0  0
 12 13  1  0  0  0
 12 35  1  0  0  0
 13 14  1  0  0  0
 14 15  1  0  0  0
 15 36  1  0  0  0
 15 37  1  0  0  0
 15 38  1  0  0  0
 38 39  1  0  0  0
M  CHG  1  38   1
M  END
> <energy>
44.6926

> <chiral flag>
0

> <version>
0

> <i_ionizer_Ion_state_n>
1

> <i_ionizer_Tot_Q>
1

> <s_ionizer_Ion_centers>
38

> <s_ionizer_Ion_types>
N5

> <s_ionizer_Ion_ctrs_in>
9

> <r_ionizer_Ionization_penalty>
0.00148639

> <r_ionizer_Ionization_penalty_charging>
0.00148639

> <r_ionizer_Ionization_penalty_neutral>
0

$$$$
ZINC001258443675
                    3D
 Structure written by MMmdl.
 39 40  0  0  1  0            999 V2000
    0.1461   -4.2148   -0.0704 C   0  0  0  0  0  0
    0.2696   -3.2778   -1.2614 C   0  0  0  0  0  0
   -0.1829   -1.8602   -0.9051 C   0  0  0  0  0  0
   -0.1194   -0.9356   -2.1182 C   0  0  0  0  0  0
   -0.6697    0.4737   -1.8831 C   0  0  0  0  0  0
    0.0357    1.4360   -0.8820 C   0  0  2  0  0  0
    1.5163    1.6978   -1.2747 C   0  0  0  0  0  0
    2.5573    0.7005   -0.7773 C   0  0  0  0  0  0
   -1.5777    0.8898    0.9489 C   0  0  0  0  0  0
   -1.6166    1.4317    2.3219 C   0  0  0  0  0  0
   -2.5591    1.3670    3.3064 N   0  0  0  0  0  0
   -2.0804    2.0401    4.3425 C   0  0  0  0  0  0
   -0.5133    2.7730    4.1418 S   0  0  0  0  0  0
   -0.4904    2.1357    2.6020 C   0  0  0  0  0  0
    0.4431    2.1541    1.4713 C   0  0  0  0  0  0
    0.7683   -3.8745    0.7630 H   0  0  0  0  0  0
    0.4687   -5.2240   -0.3446 H   0  0  0  0  0  0
   -0.8904   -4.2736    0.2764 H   0  0  0  0  0  0
    1.3109   -3.2629   -1.6035 H   0  0  0  0  0  0
   -0.3371   -3.6672   -2.0875 H   0  0  0  0  0  0
    0.4501   -1.4770   -0.0987 H   0  0  0  0  0  0
   -1.2122   -1.8971   -0.5311 H   0  0  0  0  0  0
   -0.7180   -1.3852   -2.9227 H   0  0  0  0  0  0
    0.8976   -0.8844   -2.5177 H   0  0  0  0  0  0
   -0.6691    0.9775   -2.8606 H   0  0  0  0  0  0
   -1.7325    0.3854   -1.6263 H   0  0  0  0  0  0
   -0.4742    2.3985   -1.0470 H   0  0  0  0  0  0
    1.5949    1.7738   -2.3667 H   0  0  0  0  0  0
    1.8051    2.6870   -0.8953 H   0  0  0  0  0  0
    2.5454    0.5913    0.3090 H   0  0  0  0  0  0
    2.4315   -0.2909   -1.2112 H   0  0  0  0  0  0
    3.5581    1.0486   -1.0545 H   0  0  0  0  0  0
   -1.8198   -0.1742    0.9299 H   0  0  0  0  0  0
   -2.2745    1.4539    0.3196 H   0  0  0  0  0  0
   -2.6262    2.1402    5.2710 H   0  0  0  0  0  0
    1.4558    1.8781    1.7756 H   0  0  0  0  0  0
    0.4492    3.1506    1.0146 H   0  0  0  0  0  0
   -0.1204    1.0834    0.5915 N   0  3  2  0  0  0
    0.3855    0.2078    0.7698 H   0  0  0  0  0  0
  1  2  1  0  0  0
  1 16  1  0  0  0
  1 17  1  0  0  0
  1 18  1  0  0  0
  2  3  1  0  0  0
  2 19  1  0  0  0
  2 20  1  0  0  0
  3  4  1  0  0  0
  3 21  1  0  0  0
  3 22  1  0  0  0
  4  5  1  0  0  0
  4 23  1  0  0  0
  4 24  1  0  0  0
  5  6  1  0  0  0
  5 25  1  0  0  0
  5 26  1  0  0  0
  6  7  1  0  0  0
  6 27  1  0  0  0
  6 38  1  0  0  0
  7  8  1  0  0  0
  7 28  1  0  0  0
  7 29  1  0  0  0
  8 30  1  0  0  0
  8 31  1  0  0  0
  8 32  1  0  0  0
  9 10  1  0  0  0
  9 33  1  0  0  0
  9 34  1  0  0  0
  9 38  1  0  0  0
 10 11  1  0  0  0
 10 14  2  0  0  0
 11 12  2  0  0  0
 12 13  1  0  0  0
 12 35  1  0  0  0
 13 14  1  0  0  0
 14 15  1  0  0  0
 15 36  1  0  0  0
 15 37  1  0  0  0
 15 38  1  0  0  0
 38 39  1  0  0  0
M  CHG  1  38   1
M  END
> <energy>
46.6615

> <chiral flag>
0

> <version>
0

> <i_ionizer_Ion_state_n>
1

> <i_ionizer_Tot_Q>
1

> <s_ionizer_Ion_centers>
38

> <s_ionizer_Ion_types>
N5

> <s_ionizer_Ion_ctrs_in>
9

> <r_ionizer_Ionization_penalty>
0.00148639

> <r_ionizer_Ionization_penalty_charging>
0.00148639

> <r_ionizer_Ionization_penalty_neutral>
0

$$$$
ZINC001258443700
                    3D
 Structure written by MMmdl.
 53 52  0  0  1  0            999 V2000
   -4.1587    2.6888    0.5938 C   0  0  0  0  0  0
   -4.4472    1.6908   -0.5182 C   0  0  0  0  0  0
   -3.2990    0.7031   -0.7534 C   0  0  0  0  0  0
   -3.1706   -0.3226    0.3773 C   0  0  0  0  0  0
   -2.1018   -1.3997    0.1435 C   0  0  0  0  0  0
   -0.6596   -1.2309    0.7084 C   0  0  2  0  0  0
   -0.4766   -0.2220    1.8684 C   0  0  0  0  0  0
   -0.3422    1.2445    1.4825 C   0  0  0  0  0  0
    0.2630   -0.4210   -1.5083 C   0  0  0  0  0  0
    0.0432   -1.3146   -2.7264 C   0  0  0  0  0  0
    1.4242   -2.2042   -0.2255 C   0  0  0  0  0  0
    2.8697   -1.8525   -0.6289 C   0  0  0  0  0  0
    3.6263   -0.9924    0.4018 C   0  0  0  0  0  0
    3.7125    1.0894    1.6187 C   0  0  0  0  0  0
    3.9280    1.1129   -0.7679 C   0  0  0  0  0  0
   -3.2577    3.2701    0.3736 H   0  0  0  0  0  0
   -4.0224    2.1940    1.5590 H   0  0  0  0  0  0
   -4.9947    3.3871    0.6972 H   0  0  0  0  0  0
   -5.3695    1.1449   -0.2874 H   0  0  0  0  0  0
   -4.6302    2.2450   -1.4462 H   0  0  0  0  0  0
   -3.4859    0.1724   -1.6956 H   0  0  0  0  0  0
   -2.3707    1.2613   -0.8862 H   0  0  0  0  0  0
   -3.0433    0.1637    1.3459 H   0  0  0  0  0  0
   -4.1384   -0.8405    0.4430 H   0  0  0  0  0  0
   -2.0870   -1.6846   -0.9105 H   0  0  0  0  0  0
   -2.5004   -2.2984    0.6376 H   0  0  0  0  0  0
   -0.5107   -2.1957    1.2160 H   0  0  0  0  0  0
   -1.2926   -0.3370    2.5920 H   0  0  0  0  0  0
    0.4333   -0.4944    2.4212 H   0  0  0  0  0  0
   -0.2629    1.8648    2.3819 H   0  0  0  0  0  0
   -1.2023    1.6049    0.9199 H   0  0  0  0  0  0
    0.5552    1.4245    0.8827 H   0  0  0  0  0  0
   -0.5577    0.2927   -1.4361 H   0  0  0  0  0  0
    1.1401    0.2043   -1.7096 H   0  0  0  0  0  0
   -0.1752   -0.6959   -3.6029 H   0  0  0  0  0  0
   -0.7892   -2.0083   -2.5889 H   0  0  0  0  0  0
    0.9348   -1.9016   -2.9637 H   0  0  0  0  0  0
    1.0597   -3.0148   -0.8690 H   0  0  0  0  0  0
    1.4861   -2.6381    0.7818 H   0  0  0  0  0  0
    2.9123   -1.4135   -1.6298 H   0  0  0  0  0  0
    3.4138   -2.8035   -0.7117 H   0  0  0  0  0  0
    4.7070   -1.1359    0.2646 H   0  0  0  0  0  0
    3.3932   -1.4022    1.3932 H   0  0  0  0  0  0
    3.4264    2.1473    1.6101 H   0  0  0  0  0  0
    4.7945    1.0240    1.7872 H   0  0  0  0  0  0
    3.1970    0.6385    2.4749 H   0  0  0  0  0  0
    3.6593    2.1762   -0.7779 H   0  0  0  0  0  0
    5.0215    1.0395   -0.7454 H   0  0  0  0  0  0
    3.5764    0.7022   -1.7198 H   0  0  0  0  0  0
    0.5730   -0.9863   -0.1440 N   0  3  2  0  0  0
    1.1265   -0.2723    0.3438 H   0  0  0  0  0  0
    3.2801    0.4481    0.3728 N   0  3  0  0  0  0
    2.2619    0.5435    0.2809 H   0  0  0  0  0  0
  1  2  1  0  0  0
  1 16  1  0  0  0
  1 17  1  0  0  0
  1 18  1  0  0  0
  2  3  1  0  0  0
  2 19  1  0  0  0
  2 20  1  0  0  0
  3  4  1  0  0  0
  3 21  1  0  0  0
  3 22  1  0  0  0
  4  5  1  0  0  0
  4 23  1  0  0  0
  4 24  1  0  0  0
  5  6  1  0  0  0
  5 25  1  0  0  0
  5 26  1  0  0  0
  6  7  1  0  0  0
  6 27  1  0  0  0
  6 50  1  0  0  0
  7  8  1  0  0  0
  7 28  1  0  0  0
  7 29  1  0  0  0
  8 30  1  0  0  0
  8 31  1  0  0  0
  8 32  1  0  0  0
  9 10  1  0  0  0
  9 33  1  0  0  0
  9 34  1  0  0  0
  9 50  1  0  0  0
 10 35  1  0  0  0
 10 36  1  0  0  0
 10 37  1  0  0  0
 11 12  1  0  0  0
 11 38  1  0  0  0
 11 39  1  0  0  0
 11 50  1  0  0  0
 12 13  1  0  0  0
 12 40  1  0  0  0
 12 41  1  0  0  0
 13 42  1  0  0  0
 13 43  1  0  0  0
 13 52  1  0  0  0
 14 44  1  0  0  0
 14 45  1  0  0  0
 14 46  1  0  0  0
 14 52  1  0  0  0
 15 47  1  0  0  0
 15 48  1  0  0  0
 15 49  1  0  0  0
 15 52  1  0  0  0
 50 51  1  0  0  0
 52 53  1  0  0  0
M  CHG  2  50   1  52   1
M  END
> <energy>
41.0604

> <chiral flag>
0

> <version>
0

> <i_ionizer_Ion_state_n>
3

> <i_ionizer_Tot_Q>
2

> <s_ionizer_Ion_centers>
50_52

> <s_ionizer_Ion_types>
N5_N5

> <s_ionizer_Ion_ctrs_in>
9_15

> <r_ionizer_Ionization_penalty>
0.00297278

> <r_ionizer_Ionization_penalty_charging>
0.00297278

> <r_ionizer_Ionization_penalty_neutral>
0

$$$$
ZINC001258443701
                    3D
 Structure written by MMmdl.
 53 52  0  0  1  0            999 V2000
   -3.3532   -1.8361   -0.5182 C   0  0  0  0  0  0
   -3.5596   -1.5193   -1.9899 C   0  0  0  0  0  0
   -3.2706   -0.0678   -2.3953 C   0  0  0  0  0  0
   -1.8210    0.3868   -2.1773 C   0  0  0  0  0  0
   -1.6137    1.0838   -0.8252 C   0  0  0  0  0  0
   -0.1236    1.2572   -0.3962 C   0  0  1  0  0  0
    0.6412    2.1470   -1.4185 C   0  0  0  0  0  0
    1.3373    1.3610   -2.5262 C   0  0  0  0  0  0
   -1.0279    1.7152    1.9487 C   0  0  0  0  0  0
   -1.1486    0.3576    2.6335 C   0  0  0  0  0  0
    1.3914    1.8537    1.5516 C   0  0  0  0  0  0
    2.4220    0.7680    1.2000 C   0  0  0  0  0  0
    2.0327   -0.6501    1.6319 C   0  0  0  0  0  0
    2.6433   -2.9651    1.8929 C   0  0  0  0  0  0
    3.5623   -1.7366    0.0583 C   0  0  0  0  0  0
   -3.9127   -1.1477    0.1205 H   0  0  0  0  0  0
   -3.7007   -2.8522   -0.3041 H   0  0  0  0  0  0
   -2.2941   -1.7931   -0.2476 H   0  0  0  0  0  0
   -2.9395   -2.1977   -2.5872 H   0  0  0  0  0  0
   -4.6022   -1.7449   -2.2482 H   0  0  0  0  0  0
   -3.9695    0.6100   -1.8924 H   0  0  0  0  0  0
   -3.4900    0.0061   -3.4684 H   0  0  0  0  0  0
   -1.1446   -0.4685   -2.2804 H   0  0  0  0  0  0
   -1.5778    1.1005   -2.9729 H   0  0  0  0  0  0
   -2.1344    0.4925   -0.0689 H   0  0  0  0  0  0
   -2.1094    2.0628   -0.8551 H   0  0  0  0  0  0
    0.3001    0.2501   -0.4123 H   0  0  0  0  0  0
    1.4272    2.7268   -0.9240 H   0  0  0  0  0  0
   -0.0344    2.8907   -1.8585 H   0  0  0  0  0  0
    1.9483    2.0355   -3.1368 H   0  0  0  0  0  0
    2.0030    0.5970   -2.1135 H   0  0  0  0  0  0
    0.6343    0.8648   -3.1963 H   0  0  0  0  0  0
   -1.9953    1.9938    1.5154 H   0  0  0  0  0  0
   -0.8765    2.4766    2.7275 H   0  0  0  0  0  0
   -1.1997   -0.4623    1.9110 H   0  0  0  0  0  0
   -0.3070    0.1767    3.3089 H   0  0  0  0  0  0
   -2.0602    0.3258    3.2413 H   0  0  0  0  0  0
    1.8333    2.8181    1.2716 H   0  0  0  0  0  0
    1.3299    1.9070    2.6464 H   0  0  0  0  0  0
    3.3654    1.0359    1.6950 H   0  0  0  0  0  0
    2.6271    0.8064    0.1279 H   0  0  0  0  0  0
    1.7845   -0.6174    2.7000 H   0  0  0  0  0  0
    1.1330   -0.9787    1.1020 H   0  0  0  0  0  0
    2.3227   -2.9310    2.9407 H   0  0  0  0  0  0
    1.8087   -3.3335    1.2846 H   0  0  0  0  0  0
    3.4588   -3.6954    1.8385 H   0  0  0  0  0  0
    2.7356   -1.9311   -0.6351 H   0  0  0  0  0  0
    4.3012   -2.5372   -0.0585 H   0  0  0  0  0  0
    4.0695   -0.8183   -0.2504 H   0  0  0  0  0  0
    0.0346    2.0196    0.9371 N   0  3  1  0  0  0
   -0.0630    3.0151    0.7055 H   0  0  0  0  0  0
    3.1247   -1.6527    1.4645 N   0  3  0  0  0  0
    3.9237   -1.3759    2.0470 H   0  0  0  0  0  0
  1  2  1  0  0  0
  1 16  1  0  0  0
  1 17  1  0  0  0
  1 18  1  0  0  0
  2  3  1  0  0  0
  2 19  1  0  0  0
  2 20  1  0  0  0
  3  4  1  0  0  0
  3 21  1  0  0  0
  3 22  1  0  0  0
  4  5  1  0  0  0
  4 23  1  0  0  0
  4 24  1  0  0  0
  5  6  1  0  0  0
  5 25  1  0  0  0
  5 26  1  0  0  0
  6  7  1  0  0  0
  6 27  1  0  0  0
  6 50  1  0  0  0
  7  8  1  0  0  0
  7 28  1  0  0  0
  7 29  1  0  0  0
  8 30  1  0  0  0
  8 31  1  0  0  0
  8 32  1  0  0  0
  9 10  1  0  0  0
  9 33  1  0  0  0
  9 34  1  0  0  0
  9 50  1  0  0  0
 10 35  1  0  0  0
 10 36  1  0  0  0
 10 37  1  0  0  0
 11 12  1  0  0  0
 11 38  1  0  0  0
 11 39  1  0  0  0
 11 50  1  0  0  0
 12 13  1  0  0  0
 12 40  1  0  0  0
 12 41  1  0  0  0
 13 42  1  0  0  0
 13 43  1  0  0  0
 13 52  1  0  0  0
 14 44  1  0  0  0
 14 45  1  0  0  0
 14 46  1  0  0  0
 14 52  1  0  0  0
 15 47  1  0  0  0
 15 48  1  0  0  0
 15 49  1  0  0  0
 15 52  1  0  0  0
 50 51  1  0  0  0
 52 53  1  0  0  0
M  CHG  2  50   1  52   1
M  END
> <energy>
31.8419

> <chiral flag>
0

> <version>
0

> <i_ionizer_Ion_state_n>
3

> <i_ionizer_Tot_Q>
2

> <s_ionizer_Ion_centers>
50_52

> <s_ionizer_Ion_types>
N5_N5

> <s_ionizer_Ion_ctrs_in>
9_15

> <r_ionizer_Ionization_penalty>
0.00297278

> <r_ionizer_Ionization_penalty_charging>
0.00297278

> <r_ionizer_Ionization_penalty_neutral>
0

$$$$
ZINC001258443951
                    3D
 Structure written by MMmdl.
 47 47  0  0  1  0            999 V2000
   -3.5767    0.6845    2.1962 C   0  0  0  0  0  0
   -3.3256    0.7081    0.6968 C   0  0  0  0  0  0
   -2.8956   -0.6501    0.1357 C   0  0  0  0  0  0
   -1.4845   -1.0542    0.5838 C   0  0  0  0  0  0
   -0.7651   -1.9754   -0.4139 C   0  0  0  0  0  0
    0.4470   -1.4082   -1.2185 C   0  0  1  0  0  0
    0.0301   -0.7110   -2.5420 C   0  0  0  0  0  0
   -0.9178    0.4729   -2.4774 C   0  0  0  0  0  0
    2.1841   -1.6703    0.5514 C   0  0  0  0  0  0
    1.8974   -1.2343    1.9912 C   0  0  0  0  0  0
    2.2695    0.2240    2.2532 C   0  0  0  0  0  0
    2.6022    0.9772    0.9722 C   0  0  0  0  0  0
    1.6149    0.6393   -0.1631 C   0  0  1  0  0  0
    2.1037    1.4359   -1.3824 C   0  0  0  0  0  0
    1.6630    2.8797   -1.4452 C   0  0  0  0  0  0
    2.8789    0.9922   -2.2324 O   0  0  0  0  0  0
   -2.6491    0.5264    2.7529 H   0  0  0  0  0  0
   -4.2796   -0.1105    2.4620 H   0  0  0  0  0  0
   -4.0033    1.6398    2.5199 H   0  0  0  0  0  0
   -2.5669    1.4675    0.4680 H   0  0  0  0  0  0
   -4.2482    1.0216    0.1896 H   0  0  0  0  0  0
   -2.9579   -0.6022   -0.9537 H   0  0  0  0  0  0
   -3.6113   -1.4234    0.4423 H   0  0  0  0  0  0
   -1.5943   -1.6017    1.5322 H   0  0  0  0  0  0
   -0.8885   -0.1728    0.8222 H   0  0  0  0  0  0
   -0.3926   -2.8356    0.1591 H   0  0  0  0  0  0
   -1.4836   -2.4091   -1.1210 H   0  0  0  0  0  0
    0.9258   -2.3192   -1.6123 H   0  0  0  0  0  0
    0.9326   -0.4287   -3.0995 H   0  0  0  0  0  0
   -0.4560   -1.4713   -3.1725 H   0  0  0  0  0  0
   -0.8697    1.0138   -1.5365 H   0  0  0  0  0  0
   -1.9473    0.1425   -2.6386 H   0  0  0  0  0  0
   -0.6936    1.1772   -3.2829 H   0  0  0  0  0  0
    3.2689   -1.6496    0.3804 H   0  0  0  0  0  0
    1.8980   -2.7193    0.4276 H   0  0  0  0  0  0
    2.4379   -1.8792    2.6940 H   0  0  0  0  0  0
    0.8303   -1.3752    2.2119 H   0  0  0  0  0  0
    1.4336    0.7122    2.7661 H   0  0  0  0  0  0
    3.1284    0.2807    2.9336 H   0  0  0  0  0  0
    3.6267    0.7329    0.6560 H   0  0  0  0  0  0
    2.5986    2.0526    1.1903 H   0  0  0  0  0  0
    0.6347    1.0170    0.1366 H   0  0  0  0  0  0
    0.6029    2.9704   -1.1913 H   0  0  0  0  0  0
    2.2569    3.4725   -0.7458 H   0  0  0  0  0  0
    1.8021    3.2621   -2.4614 H   0  0  0  0  0  0
    1.7067   -0.8275   -0.5747 N   0  3  2  0  0  0
    2.4336   -0.8700   -1.2985 H   0  0  0  0  0  0
  1  2  1  0  0  0
  1 17  1  0  0  0
  1 18  1  0  0  0
  1 19  1  0  0  0
  2  3  1  0  0  0
  2 20  1  0  0  0
  2 21  1  0  0  0
  3  4  1  0  0  0
  3 22  1  0  0  0
  3 23  1  0  0  0
  4  5  1  0  0  0
  4 24  1  0  0  0
  4 25  1  0  0  0
  5  6  1  0  0  0
  5 26  1  0  0  0
  5 27  1  0  0  0
  6  7  1  0  0  0
  6 28  1  0  0  0
  6 46  1  0  0  0
  7  8  1  0  0  0
  7 29  1  0  0  0
  7 30  1  0  0  0
  8 31  1  0  0  0
  8 32  1  0  0  0
  8 33  1  0  0  0
  9 10  1  0  0  0
  9 34  1  0  0  0
  9 35  1  0  0  0
  9 46  1  0  0  0
 10 11  1  0  0  0
 10 36  1  0  0  0
 10 37  1  0  0  0
 11 12  1  0  0  0
 11 38  1  0  0  0
 11 39  1  0  0  0
 12 13  1  0  0  0
 12 40  1  0  0  0
 12 41  1  0  0  0
 13 14  1  0  0  0
 13 42  1  0  0  0
 13 46  1  0  0  0
 14 15  1  0  0  0
 14 16  2  0  0  0
 15 43  1  0  0  0
 15 44  1  0  0  0
 15 45  1  0  0  0
 46 47  1  0  0  0
M  CHG  1  46   1
M  END
> <energy>
66.6363

> <chiral flag>
0

> <version>
0

> <i_ionizer_Ion_state_n>
1

> <i_ionizer_Tot_Q>
1

> <s_ionizer_Ion_centers>
46

> <s_ionizer_Ion_types>
N5

> <s_ionizer_Ion_ctrs_in>
9

> <r_ionizer_Ionization_penalty>
0.00148639

> <r_ionizer_Ionization_penalty_charging>
0.00148639

> <r_ionizer_Ionization_penalty_neutral>
0

$$$$
ZINC001258443952
                    3D
 Structure written by MMmdl.
 47 47  0  0  1  0            999 V2000
    3.7650   -1.3622    0.7950 C   0  0  0  0  0  0
    2.4267   -2.0420    1.0391 C   0  0  0  0  0  0
    1.5868   -2.1079   -0.2365 C   0  0  0  0  0  0
    0.1927   -2.6861    0.0233 C   0  0  0  0  0  0
   -0.9868   -1.8064   -0.4329 C   0  0  0  0  0  0
   -1.2486   -0.5654    0.4688 C   0  0  2  0  0  0
   -2.7287   -0.1103    0.4642 C   0  0  0  0  0  0
   -3.6839   -1.1017    1.1219 C   0  0  0  0  0  0
    0.1736    1.1966    1.4277 C   0  0  0  0  0  0
   -0.0653    2.7061    1.5000 C   0  0  0  0  0  0
    0.5238    3.4315    0.2964 C   0  0  0  0  0  0
    0.4506    2.5882   -0.9724 C   0  0  0  0  0  0
   -0.6410    1.5089   -0.8794 C   0  0  1  0  0  0
   -0.8478    0.8653   -2.2563 C   0  0  0  0  0  0
    0.3583    0.4876   -3.0780 C   0  0  0  0  0  0
   -1.9812    0.6833   -2.7111 O   0  0  0  0  0  0
    4.3452   -1.8927    0.0321 H   0  0  0  0  0  0
    3.6220   -0.3291    0.4613 H   0  0  0  0  0  0
    4.3516   -1.3446    1.7190 H   0  0  0  0  0  0
    1.8865   -1.4923    1.8182 H   0  0  0  0  0  0
    2.6017   -3.0562    1.4172 H   0  0  0  0  0  0
    2.1056   -2.7455   -0.9641 H   0  0  0  0  0  0
    1.5338   -1.1192   -0.6919 H   0  0  0  0  0  0
    0.0613   -2.9424    1.0812 H   0  0  0  0  0  0
    0.1210   -3.6365   -0.5200 H   0  0  0  0  0  0
   -1.8716   -2.4513   -0.4244 H   0  0  0  0  0  0
   -0.8508   -1.5336   -1.4822 H   0  0  0  0  0  0
   -1.0568   -0.9359    1.4866 H   0  0  0  0  0  0
   -3.0802    0.0733   -0.5554 H   0  0  0  0  0  0
   -2.8186    0.8345    1.0136 H   0  0  0  0  0  0
   -4.6853   -0.6649    1.1871 H   0  0  0  0  0  0
   -3.3597   -1.3453    2.1379 H   0  0  0  0  0  0
   -3.7689   -2.0295    0.5518 H   0  0  0  0  0  0
    1.2525    1.0160    1.5091 H   0  0  0  0  0  0
   -0.2658    0.7520    2.3284 H   0  0  0  0  0  0
   -1.1440    2.9041    1.5534 H   0  0  0  0  0  0
    0.3692    3.1126    2.4210 H   0  0  0  0  0  0
    1.5695    3.6977    0.4892 H   0  0  0  0  0  0
   -0.0114    4.3765    0.1494 H   0  0  0  0  0  0
    1.4283    2.1144   -1.1307 H   0  0  0  0  0  0
    0.2934    3.2373   -1.8414 H   0  0  0  0  0  0
   -1.5856    2.0160   -0.6406 H   0  0  0  0  0  0
    0.6955    1.3564   -3.6461 H   0  0  0  0  0  0
    0.0865   -0.3136   -3.7707 H   0  0  0  0  0  0
    1.1669    0.1237   -2.4450 H   0  0  0  0  0  0
   -0.1983    0.4958    0.1712 N   0  3  2  0  0  0
    0.6350    0.0171   -0.1904 H   0  0  0  0  0  0
  1  2  1  0  0  0
  1 17  1  0  0  0
  1 18  1  0  0  0
  1 19  1  0  0  0
  2  3  1  0  0  0
  2 20  1  0  0  0
  2 21  1  0  0  0
  3  4  1  0  0  0
  3 22  1  0  0  0
  3 23  1  0  0  0
  4  5  1  0  0  0
  4 24  1  0  0  0
  4 25  1  0  0  0
  5  6  1  0  0  0
  5 26  1  0  0  0
  5 27  1  0  0  0
  6  7  1  0  0  0
  6 28  1  0  0  0
  6 46  1  0  0  0
  7  8  1  0  0  0
  7 29  1  0  0  0
  7 30  1  0  0  0
  8 31  1  0  0  0
  8 32  1  0  0  0
  8 33  1  0  0  0
  9 10  1  0  0  0
  9 34  1  0  0  0
  9 35  1  0  0  0
  9 46  1  0  0  0
 10 11  1  0  0  0
 10 36  1  0  0  0
 10 37  1  0  0  0
 11 12  1  0  0  0
 11 38  1  0  0  0
 11 39  1  0  0  0
 12 13  1  0  0  0
 12 40  1  0  0  0
 12 41  1  0  0  0
 13 14  1  0  0  0
 13 42  1  0  0  0
 13 46  1  0  0  0
 14 15  1  0  0  0
 14 16  2  0  0  0
 15 43  1  0  0  0
 15 44  1  0  0  0
 15 45  1  0  0  0
 46 47  1  0  0  0
M  CHG  1  46   1
M  END
> <energy>
56.2729

> <chiral flag>
0

> <version>
0

> <i_ionizer_Ion_state_n>
1

> <i_ionizer_Tot_Q>
1

> <s_ionizer_Ion_centers>
46

> <s_ionizer_Ion_types>
N5

> <s_ionizer_Ion_ctrs_in>
9

> <r_ionizer_Ionization_penalty>
0.00148639

> <r_ionizer_Ionization_penalty_charging>
0.00148639

> <r_ionizer_Ionization_penalty_neutral>
0

$$$$
ZINC001258443953
                    3D
 Structure written by MMmdl.
 47 47  0  0  1  0            999 V2000
   -3.8377   -1.0083   -2.0865 C   0  0  0  0  0  0
   -4.0900    0.1468   -1.1301 C   0  0  0  0  0  0
   -3.1944    0.1186    0.1120 C   0  0  0  0  0  0
   -1.7173    0.4002   -0.1884 C   0  0  0  0  0  0
   -0.8552    0.3712    1.0838 C   0  0  0  0  0  0
    0.3368   -0.6253    1.0966 C   0  0  1  0  0  0
   -0.1184   -2.1076    1.0057 C   0  0  0  0  0  0
   -0.8852   -2.5907    2.2314 C   0  0  0  0  0  0
    1.3844   -0.8553   -1.2000 C   0  0  0  0  0  0
    1.5940    0.1943   -2.2934 C   0  0  0  0  0  0
    2.9052    0.9531   -2.1201 C   0  0  0  0  0  0
    3.3127    1.0865   -0.6562 C   0  0  0  0  0  0
    2.1117    0.9881    0.2963 C   0  0  2  0  0  0
    2.6548    1.2066    1.7196 C   0  0  0  0  0  0
    2.4463    2.5846    2.3025 C   0  0  0  0  0  0
    3.2692    0.3479    2.3551 O   0  0  0  0  0  0
   -4.5869   -1.0025   -2.8842 H   0  0  0  0  0  0
   -2.8524   -0.9346   -2.5565 H   0  0  0  0  0  0
   -3.9037   -1.9713   -1.5707 H   0  0  0  0  0  0
   -5.1347    0.0995   -0.8026 H   0  0  0  0  0  0
   -3.9672    1.0969   -1.6634 H   0  0  0  0  0  0
   -3.2886   -0.8550    0.6048 H   0  0  0  0  0  0
   -3.5640    0.8688    0.8213 H   0  0  0  0  0  0
   -1.6309    1.3924   -0.6485 H   0  0  0  0  0  0
   -1.3571   -0.3137   -0.9298 H   0  0  0  0  0  0
   -1.4861    0.1628    1.9575 H   0  0  0  0  0  0
   -0.4788    1.3862    1.2696 H   0  0  0  0  0  0
    0.7747   -0.5331    2.0988 H   0  0  0  0  0  0
    0.7655   -2.7495    0.8954 H   0  0  0  0  0  0
   -0.7473   -2.2775    0.1263 H   0  0  0  0  0  0
   -0.2882   -2.4754    3.1411 H   0  0  0  0  0  0
   -1.8275   -2.0530    2.3624 H   0  0  0  0  0  0
   -1.1288   -3.6513    2.1168 H   0  0  0  0  0  0
    0.4529   -1.3810   -1.4246 H   0  0  0  0  0  0
    2.1749   -1.6127   -1.2837 H   0  0  0  0  0  0
    0.7575    0.9038   -2.2727 H   0  0  0  0  0  0
    1.5720   -0.2770   -3.2830 H   0  0  0  0  0  0
    3.7092    0.4473   -2.6695 H   0  0  0  0  0  0
    2.8036    1.9459   -2.5732 H   0  0  0  0  0  0
    3.8521    2.0331   -0.5119 H   0  0  0  0  0  0
    4.0347    0.2931   -0.4171 H   0  0  0  0  0  0
    1.4119    1.7995    0.0623 H   0  0  0  0  0  0
    2.8411    2.6176    3.3219 H   0  0  0  0  0  0
    2.9750    3.3237    1.6958 H   0  0  0  0  0  0
    1.3778    2.8143    2.3371 H   0  0  0  0  0  0
    1.5741   -0.4201    0.2233 N   0  3  1  0  0  0
    2.3016   -1.0296    0.6151 H   0  0  0  0  0  0
  1  2  1  0  0  0
  1 17  1  0  0  0
  1 18  1  0  0  0
  1 19  1  0  0  0
  2  3  1  0  0  0
  2 20  1  0  0  0
  2 21  1  0  0  0
  3  4  1  0  0  0
  3 22  1  0  0  0
  3 23  1  0  0  0
  4  5  1  0  0  0
  4 24  1  0  0  0
  4 25  1  0  0  0
  5  6  1  0  0  0
  5 26  1  0  0  0
  5 27  1  0  0  0
  6  7  1  0  0  0
  6 28  1  0  0  0
  6 46  1  0  0  0
  7  8  1  0  0  0
  7 29  1  0  0  0
  7 30  1  0  0  0
  8 31  1  0  0  0
  8 32  1  0  0  0
  8 33  1  0  0  0
  9 10  1  0  0  0
  9 34  1  0  0  0
  9 35  1  0  0  0
  9 46  1  0  0  0
 10 11  1  0  0  0
 10 36  1  0  0  0
 10 37  1  0  0  0
 11 12  1  0  0  0
 11 38  1  0  0  0
 11 39  1  0  0  0
 12 13  1  0  0  0
 12 40  1  0  0  0
 12 41  1  0  0  0
 13 14  1  0  0  0
 13 42  1  0  0  0
 13 46  1  0  0  0
 14 15  1  0  0  0
 14 16  2  0  0  0
 15 43  1  0  0  0
 15 44  1  0  0  0
 15 45  1  0  0  0
 46 47  1  0  0  0
M  CHG  1  46   1
M  END
> <energy>
55.5198

> <chiral flag>
0

> <version>
0

> <i_ionizer_Ion_state_n>
1

> <i_ionizer_Tot_Q>
1

> <s_ionizer_Ion_centers>
46

> <s_ionizer_Ion_types>
N5

> <s_ionizer_Ion_ctrs_in>
9

> <r_ionizer_Ionization_penalty>
0.00148639

> <r_ionizer_Ionization_penalty_charging>
0.00148639

> <r_ionizer_Ionization_penalty_neutral>
0

$$$$
ZINC001258443954
                    3D
 Structure written by MMmdl.
 47 47  0  0  1  0            999 V2000
    3.9983   -0.9165   -1.9714 C   0  0  0  0  0  0
    3.6371   -0.2706   -0.6435 C   0  0  0  0  0  0
    2.3855   -0.9064   -0.0335 C   0  0  0  0  0  0
    1.9271   -0.1405    1.2046 C   0  0  0  0  0  0
    0.6988   -0.7064    1.9415 C   0  0  0  0  0  0
   -0.6571   -0.8753    1.1784 C   0  0  2  0  0  0
   -0.9893   -2.3872    0.9972 C   0  0  0  0  0  0
   -0.0272   -3.2132    0.1591 C   0  0  0  0  0  0
   -1.7260   -0.3845   -1.0398 C   0  0  0  0  0  0
   -3.1835   -0.0946   -0.6874 C   0  0  0  0  0  0
   -3.3792    1.3781   -0.3566 C   0  0  0  0  0  0
   -2.3956    1.8158    0.7213 C   0  0  0  0  0  0
   -0.9397    1.4521    0.3749 C   0  0  2  0  0  0
   -0.3502    2.3915   -0.7128 C   0  0  0  0  0  0
   -0.3462    3.8685   -0.3931 C   0  0  0  0  0  0
    0.1078    2.0080   -1.7894 O   0  0  0  0  0  0
    4.1614   -1.9928   -1.8570 H   0  0  0  0  0  0
    3.2021   -0.7651   -2.7086 H   0  0  0  0  0  0
    4.9165   -0.4725   -2.3678 H   0  0  0  0  0  0
    3.4767    0.8017   -0.8042 H   0  0  0  0  0  0
    4.4779   -0.3749    0.0526 H   0  0  0  0  0  0
    1.5938   -0.9139   -0.7881 H   0  0  0  0  0  0
    2.6086   -1.9457    0.2299 H   0  0  0  0  0  0
    1.7470    0.9035    0.9302 H   0  0  0  0  0  0
    2.7572   -0.1092    1.9219 H   0  0  0  0  0  0
    0.9867   -1.6572    2.4084 H   0  0  0  0  0  0
    0.5114   -0.0281    2.7862 H   0  0  0  0  0  0
   -1.4339   -0.5577    1.8888 H   0  0  0  0  0  0
   -2.0022   -2.5014    0.5924 H   0  0  0  0  0  0
   -1.0422   -2.8458    1.9946 H   0  0  0  0  0  0
   -0.4519   -4.2080   -0.0148 H   0  0  0  0  0  0
    0.9221   -3.3598    0.6810 H   0  0  0  0  0  0
    0.1680   -2.7616   -0.8156 H   0  0  0  0  0  0
   -1.6139   -1.4363   -1.3167 H   0  0  0  0  0  0
   -1.4870    0.1452   -1.9698 H   0  0  0  0  0  0
   -3.8269   -0.3676   -1.5328 H   0  0  0  0  0  0
   -3.4984   -0.7094    0.1638 H   0  0  0  0  0  0
   -4.4075    1.5510   -0.0192 H   0  0  0  0  0  0
   -3.2324    1.9834   -1.2595 H   0  0  0  0  0  0
   -2.6754    1.3362    1.6677 H   0  0  0  0  0  0
   -2.5074    2.8925    0.8879 H   0  0  0  0  0  0
   -0.3327    1.6699    1.2624 H   0  0  0  0  0  0
   -1.3385    4.2854   -0.5821 H   0  0  0  0  0  0
   -0.0553    4.0268    0.6493 H   0  0  0  0  0  0
    0.3820    4.3772   -1.0316 H   0  0  0  0  0  0
   -0.6913    0.0395   -0.0375 N   0  3  1  0  0  0
    0.2282   -0.0069   -0.4921 H   0  0  0  0  0  0
  1  2  1  0  0  0
  1 17  1  0  0  0
  1 18  1  0  0  0
  1 19  1  0  0  0
  2  3  1  0  0  0
  2 20  1  0  0  0
  2 21  1  0  0  0
  3  4  1  0  0  0
  3 22  1  0  0  0
  3 23  1  0  0  0
  4  5  1  0  0  0
  4 24  1  0  0  0
  4 25  1  0  0  0
  5  6  1  0  0  0
  5 26  1  0  0  0
  5 27  1  0  0  0
  6  7  1  0  0  0
  6 28  1  0  0  0
  6 46  1  0  0  0
  7  8  1  0  0  0
  7 29  1  0  0  0
  7 30  1  0  0  0
  8 31  1  0  0  0
  8 32  1  0  0  0
  8 33  1  0  0  0
  9 10  1  0  0  0
  9 34  1  0  0  0
  9 35  1  0  0  0
  9 46  1  0  0  0
 10 11  1  0  0  0
 10 36  1  0  0  0
 10 37  1  0  0  0
 11 12  1  0  0  0
 11 38  1  0  0  0
 11 39  1  0  0  0
 12 13  1  0  0  0
 12 40  1  0  0  0
 12 41  1  0  0  0
 13 14  1  0  0  0
 13 42  1  0  0  0
 13 46  1  0  0  0
 14 15  1  0  0  0
 14 16  2  0  0  0
 15 43  1  0  0  0
 15 44  1  0  0  0
 15 45  1  0  0  0
 46 47  1  0  0  0
M  CHG  1  46   1
M  END
> <energy>
52.9839

> <chiral flag>
0

> <version>
0

> <i_ionizer_Ion_state_n>
1

> <i_ionizer_Tot_Q>
1

> <s_ionizer_Ion_centers>
46

> <s_ionizer_Ion_types>
N5

> <s_ionizer_Ion_ctrs_in>
9

> <r_ionizer_Ionization_penalty>
0.00148639

> <r_ionizer_Ionization_penalty_charging>
0.00148639

> <r_ionizer_Ionization_penalty_neutral>
0

$$$$
ZINC001258444006
                    3D
 Structure written by MMmdl.
 45 46  0  0  1  0            999 V2000
   -5.0850    0.3857    0.8234 C   0  0  0  0  0  0
   -4.0732    0.6207   -0.2854 C   0  0  0  0  0  0
   -2.8024    1.2921    0.2347 C   0  0  0  0  0  0
   -1.8435    1.6023   -0.9164 C   0  0  0  0  0  0
   -0.5674    2.3327   -0.4804 C   0  0  0  0  0  0
    0.3839    1.5342    0.4582 C   0  0  2  0  0  0
    1.5867    2.4523    0.8092 C   0  0  0  0  0  0
    2.5144    1.9180    1.8884 C   0  0  0  0  0  0
    1.7287    0.2265   -1.1800 C   0  0  0  0  0  0
    1.7279   -1.1010   -1.9523 C   0  0  0  0  0  0
    1.8374   -2.2814   -1.0309 C   0  0  0  0  0  0
    2.3189   -3.5139   -1.4827 C   0  0  0  0  0  0
    2.3852   -4.5868   -0.5996 C   0  0  0  0  0  0
    1.9648   -4.3897    0.7041 C   0  0  0  0  0  0
    1.4814   -3.2157    1.1685 N   0  0  0  0  0  0
    1.4104   -2.1768    0.2955 C   0  0  0  0  0  0
    0.8996   -0.8518    0.8480 C   0  0  0  0  0  0
   -5.9840   -0.0917    0.4174 H   0  0  0  0  0  0
   -4.6725   -0.2671    1.5984 H   0  0  0  0  0  0
   -5.3831    1.3307    1.2904 H   0  0  0  0  0  0
   -4.5342    1.2421   -1.0624 H   0  0  0  0  0  0
   -3.8191   -0.3398   -0.7495 H   0  0  0  0  0  0
   -3.0607    2.2201    0.7560 H   0  0  0  0  0  0
   -2.3219    0.6346    0.9669 H   0  0  0  0  0  0
   -1.5915    0.6819   -1.4550 H   0  0  0  0  0  0
   -2.3634    2.2402   -1.6417 H   0  0  0  0  0  0
   -0.8612    3.2660    0.0202 H   0  0  0  0  0  0
   -0.0246    2.6356   -1.3851 H   0  0  0  0  0  0
   -0.1744    1.3710    1.3905 H   0  0  0  0  0  0
    2.1722    2.6860   -0.0874 H   0  0  0  0  0  0
    1.1951    3.4146    1.1645 H   0  0  0  0  0  0
    1.9492    1.6235    2.7768 H   0  0  0  0  0  0
    3.2313    2.6897    2.1837 H   0  0  0  0  0  0
    3.0947    1.0622    1.5373 H   0  0  0  0  0  0
    1.5482    1.0281   -1.9045 H   0  0  0  0  0  0
    2.7207    0.3948   -0.7436 H   0  0  0  0  0  0
    0.8017   -1.2012   -2.5316 H   0  0  0  0  0  0
    2.5655   -1.0990   -2.6600 H   0  0  0  0  0  0
    2.6434   -3.6424   -2.5120 H   0  0  0  0  0  0
    2.7566   -5.5529   -0.9204 H   0  0  0  0  0  0
    2.0052   -5.1956    1.4300 H   0  0  0  0  0  0
    1.6070   -0.5506    1.6244 H   0  0  0  0  0  0
   -0.0605   -1.0510    1.3393 H   0  0  0  0  0  0
    0.6176    0.1849   -0.1801 N   0  3  1  0  0  0
   -0.2426   -0.0810   -0.6737 H   0  0  0  0  0  0
  1  2  1  0  0  0
  1 18  1  0  0  0
  1 19  1  0  0  0
  1 20  1  0  0  0
  2  3  1  0  0  0
  2 21  1  0  0  0
  2 22  1  0  0  0
  3  4  1  0  0  0
  3 23  1  0  0  0
  3 24  1  0  0  0
  4  5  1  0  0  0
  4 25  1  0  0  0
  4 26  1  0  0  0
  5  6  1  0  0  0
  5 27  1  0  0  0
  5 28  1  0  0  0
  6  7  1  0  0  0
  6 29  1  0  0  0
  6 44  1  0  0  0
  7  8  1  0  0  0
  7 30  1  0  0  0
  7 31  1  0  0  0
  8 32  1  0  0  0
  8 33  1  0  0  0
  8 34  1  0  0  0
  9 10  1  0  0  0
  9 35  1  0  0  0
  9 36  1  0  0  0
  9 44  1  0  0  0
 10 11  1  0  0  0
 10 37  1  0  0  0
 10 38  1  0  0  0
 11 12  2  0  0  0
 11 16  1  0  0  0
 12 13  1  0  0  0
 12 39  1  0  0  0
 13 14  2  0  0  0
 13 40  1  0  0  0
 14 15  1  0  0  0
 14 41  1  0  0  0
 15 16  2  0  0  0
 16 17  1  0  0  0
 17 42  1  0  0  0
 17 43  1  0  0  0
 17 44  1  0  0  0
 44 45  1  0  0  0
M  CHG  1  44   1
M  END
> <energy>
61.074

> <chiral flag>
0

> <version>
0

> <i_ionizer_Ion_state_n>
1

> <i_ionizer_Tot_Q>
1

> <s_ionizer_Ion_centers>
44

> <s_ionizer_Ion_types>
N5

> <s_ionizer_Ion_ctrs_in>
9

> <r_ionizer_Ionization_penalty>
0.00889878

> <r_ionizer_Ionization_penalty_charging>
0.00148639

> <r_ionizer_Ionization_penalty_neutral>
0.00741239

$$$$
ZINC001258444007
                    3D
 Structure written by MMmdl.
 45 46  0  0  1  0            999 V2000
   -4.5896    0.5670   -0.8779 C   0  0  0  0  0  0
   -4.2214    1.0421    0.5234 C   0  0  0  0  0  0
   -2.8303    0.5848    0.9666 C   0  0  0  0  0  0
   -1.7077    1.3291    0.2345 C   0  0  0  0  0  0
   -0.3335    0.6931    0.4898 C   0  0  0  0  0  0
    0.7509    1.2624   -0.4592 C   0  0  1  0  0  0
    1.2146    2.6600    0.0423 C   0  0  0  0  0  0
    1.9809    3.4621   -1.0068 C   0  0  0  0  0  0
    1.7729   -0.5834   -1.7686 C   0  0  0  0  0  0
    0.9911   -1.8552   -1.4123 C   0  0  0  0  0  0
    1.4228   -2.4302   -0.0922 C   0  0  0  0  0  0
    1.1397   -3.7608    0.2297 C   0  0  0  0  0  0
    1.5402   -4.2585    1.4642 C   0  0  0  0  0  0
    2.1791   -3.4081    2.3473 C   0  0  0  0  0  0
    2.4482   -2.1105    2.0751 N   0  0  0  0  0  0
    2.0785   -1.6380    0.8545 C   0  0  0  0  0  0
    2.5191   -0.2228    0.5144 C   0  0  0  0  0  0
   -3.9211    0.9848   -1.6407 H   0  0  0  0  0  0
   -4.5454   -0.5259   -0.9454 H   0  0  0  0  0  0
   -5.6084    0.8842   -1.1259 H   0  0  0  0  0  0
   -4.2871    2.1351    0.5676 H   0  0  0  0  0  0
   -4.9635    0.6431    1.2262 H   0  0  0  0  0  0
   -2.7239    0.7609    2.0433 H   0  0  0  0  0  0
   -2.7367   -0.4960    0.8158 H   0  0  0  0  0  0
   -1.7167    2.3800    0.5440 H   0  0  0  0  0  0
   -1.9070    1.3185   -0.8427 H   0  0  0  0  0  0
   -0.0482    0.8339    1.5377 H   0  0  0  0  0  0
   -0.4451   -0.3805    0.3405 H   0  0  0  0  0  0
    0.2858    1.4422   -1.4368 H   0  0  0  0  0  0
    1.8301    2.5689    0.9463 H   0  0  0  0  0  0
    0.3418    3.2544    0.3370 H   0  0  0  0  0  0
    1.4347    3.4917   -1.9573 H   0  0  0  0  0  0
    2.9751    3.0395   -1.1820 H   0  0  0  0  0  0
    2.1078    4.4978   -0.6671 H   0  0  0  0  0  0
    2.7802   -0.8871   -2.0812 H   0  0  0  0  0  0
    1.3332   -0.1189   -2.6593 H   0  0  0  0  0  0
    1.1532   -2.5952   -2.2056 H   0  0  0  0  0  0
   -0.0854   -1.6506   -1.3814 H   0  0  0  0  0  0
    0.6176   -4.4056   -0.4708 H   0  0  0  0  0  0
    1.3535   -5.2901    1.7331 H   0  0  0  0  0  0
    2.5033   -3.7542    3.3228 H   0  0  0  0  0  0
    2.3919    0.4171    1.3955 H   0  0  0  0  0  0
    3.6035   -0.2762    0.3468 H   0  0  0  0  0  0
    2.0012    0.4425   -0.7226 N   0  3  2  0  0  0
    2.7257    1.0863   -1.0616 H   0  0  0  0  0  0
  1  2  1  0  0  0
  1 18  1  0  0  0
  1 19  1  0  0  0
  1 20  1  0  0  0
  2  3  1  0  0  0
  2 21  1  0  0  0
  2 22  1  0  0  0
  3  4  1  0  0  0
  3 23  1  0  0  0
  3 24  1  0  0  0
  4  5  1  0  0  0
  4 25  1  0  0  0
  4 26  1  0  0  0
  5  6  1  0  0  0
  5 27  1  0  0  0
  5 28  1  0  0  0
  6  7  1  0  0  0
  6 29  1  0  0  0
  6 44  1  0  0  0
  7  8  1  0  0  0
  7 30  1  0  0  0
  7 31  1  0  0  0
  8 32  1  0  0  0
  8 33  1  0  0  0
  8 34  1  0  0  0
  9 10  1  0  0  0
  9 35  1  0  0  0
  9 36  1  0  0  0
  9 44  1  0  0  0
 10 11  1  0  0  0
 10 37  1  0  0  0
 10 38  1  0  0  0
 11 12  2  0  0  0
 11 16  1  0  0  0
 12 13  1  0  0  0
 12 39  1  0  0  0
 13 14  2  0  0  0
 13 40  1  0  0  0
 14 15  1  0  0  0
 14 41  1  0  0  0
 15 16  2  0  0  0
 16 17  1  0  0  0
 17 42  1  0  0  0
 17 43  1  0  0  0
 17 44  1  0  0  0
 44 45  1  0  0  0
M  CHG  1  44   1
M  END
> <energy>
66.7467

> <chiral flag>
0

> <version>
0

> <i_ionizer_Ion_state_n>
1

> <i_ionizer_Tot_Q>
1

> <s_ionizer_Ion_centers>
44

> <s_ionizer_Ion_types>
N5

> <s_ionizer_Ion_ctrs_in>
9

> <r_ionizer_Ionization_penalty>
0.00889878

> <r_ionizer_Ionization_penalty_charging>
0.00148639

> <r_ionizer_Ionization_penalty_neutral>
0.00741239

$$$$
ZINC001258444105
                    3D
 Structure written by MMmdl.
 43 44  0  0  1  0            999 V2000
   -0.0419   -2.5575    3.0237 C   0  0  0  0  0  0
   -1.0885   -1.5044    3.3556 C   0  0  0  0  0  0
   -1.3721   -0.5234    2.2173 C   0  0  0  0  0  0
   -0.1203    0.1720    1.6748 C   0  0  0  0  0  0
   -0.4899    1.3606    0.7847 C   0  0  0  0  0  0
    0.6051    1.7517   -0.2356 C   0  0  2  0  0  0
    0.4595    3.2615   -0.5804 C   0  0  0  0  0  0
    1.5484    3.7865   -1.5102 C   0  0  0  0  0  0
   -0.6232    0.8301   -2.2496 C   0  0  0  0  0  0
   -1.4979   -0.4159   -1.9569 C   0  0  0  0  0  0
   -0.5994   -1.5425   -1.6679 C   0  0  0  0  0  0
   -1.0740   -2.8032   -1.5718 O   0  0  0  0  0  0
    0.0052   -3.5847   -1.2902 C   0  0  0  0  0  0
    1.1511   -2.8193   -1.2049 C   0  0  0  0  0  0
    0.7538   -1.4810   -1.4456 C   0  0  0  0  0  0
    1.5237   -0.2067   -1.5134 C   0  0  0  0  0  0
    0.9560   -2.1108    2.9610 H   0  0  0  0  0  0
   -0.2646   -3.0540    2.0746 H   0  0  0  0  0  0
   -0.0148   -3.3200    3.8089 H   0  0  0  0  0  0
   -0.7682   -0.9478    4.2424 H   0  0  0  0  0  0
   -2.0272   -2.0064    3.6188 H   0  0  0  0  0  0
   -1.8713   -1.0548    1.3971 H   0  0  0  0  0  0
   -2.0852    0.2266    2.5790 H   0  0  0  0  0  0
    0.4884   -0.5541    1.1339 H   0  0  0  0  0  0
    0.4929    0.5351    2.5089 H   0  0  0  0  0  0
   -1.4399    1.1861    0.2773 H   0  0  0  0  0  0
   -0.6941    2.2068    1.4536 H   0  0  0  0  0  0
    1.5773    1.6651    0.2712 H   0  0  0  0  0  0
    0.5087    3.8427    0.3488 H   0  0  0  0  0  0
   -0.5222    3.4693   -1.0201 H   0  0  0  0  0  0
    2.5451    3.5850   -1.1052 H   0  0  0  0  0  0
    1.4476    4.8702   -1.6280 H   0  0  0  0  0  0
    1.4784    3.3345   -2.5053 H   0  0  0  0  0  0
   -0.3317    0.7827   -3.3075 H   0  0  0  0  0  0
   -1.2451    1.7289   -2.1744 H   0  0  0  0  0  0
   -2.1557   -0.2468   -1.0993 H   0  0  0  0  0  0
   -2.1372   -0.6350   -2.8176 H   0  0  0  0  0  0
   -0.1985   -4.6401   -1.1831 H   0  0  0  0  0  0
    2.1438   -3.1889   -0.9906 H   0  0  0  0  0  0
    2.2846   -0.1746   -0.7281 H   0  0  0  0  0  0
    2.0641   -0.1866   -2.4688 H   0  0  0  0  0  0
    0.7214    1.0649   -1.5869 N   0  3  2  0  0  0
    1.2410    1.7078   -2.1959 H   0  0  0  0  0  0
  1  2  1  0  0  0
  1 17  1  0  0  0
  1 18  1  0  0  0
  1 19  1  0  0  0
  2  3  1  0  0  0
  2 20  1  0  0  0
  2 21  1  0  0  0
  3  4  1  0  0  0
  3 22  1  0  0  0
  3 23  1  0  0  0
  4  5  1  0  0  0
  4 24  1  0  0  0
  4 25  1  0  0  0
  5  6  1  0  0  0
  5 26  1  0  0  0
  5 27  1  0  0  0
  6  7  1  0  0  0
  6 28  1  0  0  0
  6 42  1  0  0  0
  7  8  1  0  0  0
  7 29  1  0  0  0
  7 30  1  0  0  0
  8 31  1  0  0  0
  8 32  1  0  0  0
  8 33  1  0  0  0
  9 10  1  0  0  0
  9 34  1  0  0  0
  9 35  1  0  0  0
  9 42  1  0  0  0
 10 11  1  0  0  0
 10 36  1  0  0  0
 10 37  1  0  0  0
 11 12  1  0  0  0
 11 15  2  0  0  0
 12 13  1  0  0  0
 13 14  2  0  0  0
 13 38  1  0  0  0
 14 15  1  0  0  0
 14 39  1  0  0  0
 15 16  1  0  0  0
 16 40  1  0  0  0
 16 41  1  0  0  0
 16 42  1  0  0  0
 42 43  1  0  0  0
M  CHG  1  42   1
M  END
> <energy>
34.6911

> <chiral flag>
0

> <version>
0

> <i_ionizer_Ion_state_n>
1

> <i_ionizer_Tot_Q>
1

> <s_ionizer_Ion_centers>
42

> <s_ionizer_Ion_types>
N5

> <s_ionizer_Ion_ctrs_in>
9

> <r_ionizer_Ionization_penalty>
0.00148639

> <r_ionizer_Ionization_penalty_charging>
0.00148639

> <r_ionizer_Ionization_penalty_neutral>
0

$$$$
ZINC001258444106
                    3D
 Structure written by MMmdl.
 43 44  0  0  1  0            999 V2000
   -5.4027   -1.0784   -0.4965 C   0  0  0  0  0  0
   -3.9346   -1.1012   -0.1002 C   0  0  0  0  0  0
   -3.1432    0.0094   -0.7946 C   0  0  0  0  0  0
   -1.6969    0.0674   -0.2910 C   0  0  0  0  0  0
   -0.8796    1.1194   -1.0477 C   0  0  0  0  0  0
    0.4614    1.5751   -0.4036 C   0  0  1  0  0  0
    0.2029    2.4262    0.8653 C   0  0  0  0  0  0
    1.4434    3.1691    1.3526 C   0  0  0  0  0  0
    1.8468   -0.1554   -1.4951 C   0  0  0  0  0  0
    3.1994   -0.9150   -1.4370 C   0  0  0  0  0  0
    3.2810   -1.5829   -0.1269 C   0  0  0  0  0  0
    4.2102   -2.5292    0.1297 O   0  0  0  0  0  0
    4.0050   -2.9001    1.4249 C   0  0  0  0  0  0
    2.9573   -2.1940    1.9787 C   0  0  0  0  0  0
    2.4839   -1.3308    0.9621 C   0  0  0  0  0  0
    1.3641   -0.3473    0.9284 C   0  0  0  0  0  0
   -5.5231   -1.2224   -1.5750 H   0  0  0  0  0  0
   -5.9439   -1.8798    0.0175 H   0  0  0  0  0  0
   -5.8692   -0.1265   -0.2236 H   0  0  0  0  0  0
   -3.8566   -0.9937    0.9879 H   0  0  0  0  0  0
   -3.5068   -2.0765   -0.3609 H   0  0  0  0  0  0
   -3.6268    0.9768   -0.6135 H   0  0  0  0  0  0
   -3.1517   -0.1576   -1.8780 H   0  0  0  0  0  0
   -1.2400   -0.9180   -0.4308 H   0  0  0  0  0  0
   -1.7044    0.2839    0.7826 H   0  0  0  0  0  0
   -1.5007    2.0148   -1.1864 H   0  0  0  0  0  0
   -0.6884    0.7462   -2.0623 H   0  0  0  0  0  0
    0.8755    2.2909   -1.1288 H   0  0  0  0  0  0
   -0.1955    1.8123    1.6796 H   0  0  0  0  0  0
   -0.5681    3.1757    0.6436 H   0  0  0  0  0  0
    1.1903    3.7941    2.2152 H   0  0  0  0  0  0
    2.2376    2.4816    1.6613 H   0  0  0  0  0  0
    1.8399    3.8217    0.5689 H   0  0  0  0  0  0
    1.9083    0.5544   -2.3289 H   0  0  0  0  0  0
    1.0459   -0.8683   -1.7328 H   0  0  0  0  0  0
    4.0301   -0.2058   -1.5391 H   0  0  0  0  0  0
    3.2592   -1.6405   -2.2550 H   0  0  0  0  0  0
    4.6729   -3.6625    1.7995 H   0  0  0  0  0  0
    2.5865   -2.2966    2.9883 H   0  0  0  0  0  0
    0.4295   -0.9098    0.8873 H   0  0  0  0  0  0
    1.3799    0.2156    1.8674 H   0  0  0  0  0  0
    1.6026    0.6049   -0.2252 N   0  3  2  0  0  0
    2.4468    1.1493   -0.0126 H   0  0  0  0  0  0
  1  2  1  0  0  0
  1 17  1  0  0  0
  1 18  1  0  0  0
  1 19  1  0  0  0
  2  3  1  0  0  0
  2 20  1  0  0  0
  2 21  1  0  0  0
  3  4  1  0  0  0
  3 22  1  0  0  0
  3 23  1  0  0  0
  4  5  1  0  0  0
  4 24  1  0  0  0
  4 25  1  0  0  0
  5  6  1  0  0  0
  5 26  1  0  0  0
  5 27  1  0  0  0
  6  7  1  0  0  0
  6 28  1  0  0  0
  6 42  1  0  0  0
  7  8  1  0  0  0
  7 29  1  0  0  0
  7 30  1  0  0  0
  8 31  1  0  0  0
  8 32  1  0  0  0
  8 33  1  0  0  0
  9 10  1  0  0  0
  9 34  1  0  0  0
  9 35  1  0  0  0
  9 42  1  0  0  0
 10 11  1  0  0  0
 10 36  1  0  0  0
 10 37  1  0  0  0
 11 12  1  0  0  0
 11 15  2  0  0  0
 12 13  1  0  0  0
 13 14  2  0  0  0
 13 38  1  0  0  0
 14 15  1  0  0  0
 14 39  1  0  0  0
 15 16  1  0  0  0
 16 40  1  0  0  0
 16 41  1  0  0  0
 16 42  1  0  0  0
 42 43  1  0  0  0
M  CHG  1  42   1
M  END
> <energy>
28.5787

> <chiral flag>
0

> <version>
0

> <i_ionizer_Ion_state_n>
1

> <i_ionizer_Tot_Q>
1

> <s_ionizer_Ion_centers>
42

> <s_ionizer_Ion_types>
N5

> <s_ionizer_Ion_ctrs_in>
9

> <r_ionizer_Ionization_penalty>
0.00148639

> <r_ionizer_Ionization_penalty_charging>
0.00148639

> <r_ionizer_Ionization_penalty_neutral>
0

$$$$
ZINC001258444234
                    3D
 Structure written by MMmdl.
 47 48  0  0  1  0            999 V2000
   -4.4599   -0.3361   -0.7868 C   0  0  0  0  0  0
   -4.2725    0.3537    0.5543 C   0  0  0  0  0  0
   -3.0305   -0.1172    1.3156 C   0  0  0  0  0  0
   -1.9650    0.9681    1.5240 C   0  0  0  0  0  0
   -1.3557    1.5338    0.2309 C   0  0  0  0  0  0
   -0.5933    0.5313   -0.6823 C   0  0  1  0  0  0
   -0.5996    1.0413   -2.1528 C   0  0  0  0  0  0
    0.0205    2.4176   -2.3494 C   0  0  0  0  0  0
    1.3137   -1.1312   -0.3939 C   0  0  0  0  0  0
    2.6833   -0.9561    0.3303 C   0  0  1  0  0  0
    3.8228   -1.7953   -0.2124 C   0  0  0  0  0  0
    3.5948   -3.2790    0.0736 C   0  0  0  0  0  0
    2.7874    0.5331    0.2153 C   0  0  0  0  0  0
    1.4002    0.7920    0.9655 C   0  0  3  0  0  0
    2.0752    0.1929    2.2607 C   0  0  0  0  0  0
    2.5993   -1.0857    1.7849 O   0  0  0  0  0  0
   -4.5588   -1.4172   -0.6567 H   0  0  0  0  0  0
   -3.6217   -0.1416   -1.4628 H   0  0  0  0  0  0
   -5.3676    0.0323   -1.2732 H   0  0  0  0  0  0
   -5.1523    0.1420    1.1736 H   0  0  0  0  0  0
   -4.2517    1.4378    0.4060 H   0  0  0  0  0  0
   -2.5856   -0.9896    0.8352 H   0  0  0  0  0  0
   -3.3496   -0.4564    2.3093 H   0  0  0  0  0  0
   -2.4195    1.7985    2.0831 H   0  0  0  0  0  0
   -1.1817    0.5715    2.1755 H   0  0  0  0  0  0
   -2.1694    2.0016   -0.3391 H   0  0  0  0  0  0
   -0.6863    2.3609    0.5006 H   0  0  0  0  0  0
   -1.1505   -0.4106   -0.6909 H   0  0  0  0  0  0
   -0.0694    0.3306   -2.7964 H   0  0  0  0  0  0
   -1.6308    1.0715   -2.5284 H   0  0  0  0  0  0
    1.0966    2.4007   -2.1422 H   0  0  0  0  0  0
   -0.1171    2.7604   -3.3827 H   0  0  0  0  0  0
   -0.4445    3.1617   -1.6979 H   0  0  0  0  0  0
    0.6646   -1.8380    0.1335 H   0  0  0  0  0  0
    1.4235   -1.4323   -1.4408 H   0  0  0  0  0  0
    3.9280   -1.6416   -1.2953 H   0  0  0  0  0  0
    4.7750   -1.4997    0.2539 H   0  0  0  0  0  0
    4.4058   -3.8776   -0.3498 H   0  0  0  0  0  0
    3.5638   -3.4839    1.1531 H   0  0  0  0  0  0
    2.6498   -3.6230   -0.3583 H   0  0  0  0  0  0
    2.8478    0.9290   -0.8149 H   0  0  0  0  0  0
    3.6435    0.9834    0.7403 H   0  0  0  0  0  0
    0.6346    0.0665    1.3462 H   0  0  0  0  0  0
    2.8933    0.8142    2.6469 H   0  0  0  0  0  0
    1.4024    0.0060    3.1128 H   0  0  0  0  0  0
    0.9265    0.2892   -0.3753 N   0  3  2  0  0  0
    1.4546    0.7803   -1.1062 H   0  0  0  0  0  0
  1  2  1  0  0  0
  1 17  1  0  0  0
  1 18  1  0  0  0
  1 19  1  0  0  0
  2  3  1  0  0  0
  2 20  1  0  0  0
  2 21  1  0  0  0
  3  4  1  0  0  0
  3 22  1  0  0  0
  3 23  1  0  0  0
  4  5  1  0  0  0
  4 24  1  0  0  0
  4 25  1  0  0  0
  5  6  1  0  0  0
  5 26  1  0  0  0
  5 27  1  0  0  0
  6  7  1  0  0  0
  6 28  1  0  0  0
  6 46  1  0  0  0
  7  8  1  0  0  0
  7 29  1  0  0  0
  7 30  1  0  0  0
  8 31  1  0  0  0
  8 32  1  0  0  0
  8 33  1  0  0  0
  9 10  1  0  0  0
  9 34  1  0  0  0
  9 35  1  0  0  0
  9 46  1  0  0  0
 10 11  1  0  0  0
 10 13  1  0  0  0
 10 16  1  0  0  0
 11 12  1  0  0  0
 11 36  1  0  0  0
 11 37  1  0  0  0
 12 38  1  0  0  0
 12 39  1  0  0  0
 12 40  1  0  0  0
 13 14  1  0  0  0
 13 41  1  0  0  0
 13 42  1  0  0  0
 14 15  1  0  0  0
 14 43  1  0  0  0
 14 46  1  0  0  0
 15 16  1  0  0  0
 15 44  1  0  0  0
 15 45  1  0  0  0
 46 47  1  0  0  0
M  CHG  1  46   1
M  END
> <energy>
177.68

> <chiral flag>
0

> <version>
0

> <i_ionizer_Ion_state_n>
1

> <i_ionizer_Tot_Q>
1

> <s_ionizer_Ion_centers>
46

> <s_ionizer_Ion_types>
N5

> <s_ionizer_Ion_ctrs_in>
9

> <r_ionizer_Ionization_penalty>
0.41068

> <r_ionizer_Ionization_penalty_charging>
0.41068

> <r_ionizer_Ionization_penalty_neutral>
0

$$$$
ZINC001258444235
                    3D
 Structure written by MMmdl.
 47 48  0  0  1  0            999 V2000
    0.5408    4.3675   -3.8154 C   0  0  0  0  0  0
    0.3105    3.7312   -2.4658 C   0  0  0  0  0  0
   -1.0993    3.1503   -2.2655 C   0  0  0  0  0  0
   -1.2141    2.0298   -1.2044 C   0  0  0  0  0  0
   -1.1372    0.5867   -1.7520 C   0  0  0  0  0  0
   -0.7610   -0.5211   -0.6685 C   0  0  2  0  0  0
   -1.6928   -0.6433    0.4991 C   0  0  0  0  0  0
   -3.1187   -0.8052    0.0644 C   0  0  0  0  0  0
    1.2493    0.1870    1.0968 C   0  0  0  0  0  0
    2.7335    0.4144    0.4279 C   0  0  1  0  0  0
    3.9865    0.5756    1.2264 C   0  0  0  0  0  0
    4.1576    2.0686    1.5102 C   0  0  0  0  0  0
    2.7155   -0.8326   -0.4128 C   0  0  0  0  0  0
    1.5421   -0.3418   -1.2032 C   0  0  3  0  0  0
    2.1053    0.9400   -1.8329 C   0  0  0  0  0  0
    2.7958    1.4695   -0.6763 O   0  0  0  0  0  0
   -0.1721    5.1684   -3.9867 H   0  0  0  0  0  0
    1.5621    4.7662   -3.8567 H   0  0  0  0  0  0
    0.4611    3.6190   -4.6146 H   0  0  0  0  0  0
    1.0879    3.0103   -2.4594 H   0  0  0  0  0  0
    0.5883    4.3890   -1.6374 H   0  0  0  0  0  0
   -1.7070    3.9962   -1.9161 H   0  0  0  0  0  0
   -1.5297    2.8130   -3.2152 H   0  0  0  0  0  0
   -0.4780    2.2211   -0.4203 H   0  0  0  0  0  0
   -2.1929    2.1175   -0.7177 H   0  0  0  0  0  0
   -2.1037    0.3240   -2.1972 H   0  0  0  0  0  0
   -0.5013    0.5113   -2.6508 H   0  0  0  0  0  0
   -0.7955   -1.4488   -1.2741 H   0  0  0  0  0  0
   -1.5624    0.2428    1.1303 H   0  0  0  0  0  0
   -1.3806   -1.5265    1.0752 H   0  0  0  0  0  0
   -3.2113   -1.6150   -0.6645 H   0  0  0  0  0  0
   -3.6923   -1.0400    0.9540 H   0  0  0  0  0  0
   -3.4947    0.1183   -0.3771 H   0  0  0  0  0  0
    1.2783   -0.4195    2.0238 H   0  0  0  0  0  0
    0.7557    1.1204    1.3620 H   0  0  0  0  0  0
    3.9809   -0.0189    2.1431 H   0  0  0  0  0  0
    4.8858    0.2671    0.6557 H   0  0  0  0  0  0
    4.8712    2.2695    2.3177 H   0  0  0  0  0  0
    3.1851    2.5093    1.7591 H   0  0  0  0  0  0
    4.5209    2.5858    0.6059 H   0  0  0  0  0  0
    3.6196   -1.0084   -0.9731 H   0  0  0  0  0  0
    2.5174   -1.7358    0.1643 H   0  0  0  0  0  0
    1.0172    0.5611   -0.8009 H   0  0  0  0  0  0
    2.4981    1.1324   -2.8465 H   0  0  0  0  0  0
    1.1936    1.4744   -2.0796 H   0  0  0  0  0  0
    0.6971   -0.6883   -0.1342 N   0  3  2  0  0  0
    0.8122   -1.6776    0.1155 H   0  0  0  0  0  0
  1  2  1  0  0  0
  1 17  1  0  0  0
  1 18  1  0  0  0
  1 19  1  0  0  0
  2  3  1  0  0  0
  2 20  1  0  0  0
  2 21  1  0  0  0
  3  4  1  0  0  0
  3 22  1  0  0  0
  3 23  1  0  0  0
  4  5  1  0  0  0
  4 24  1  0  0  0
  4 25  1  0  0  0
  5  6  1  0  0  0
  5 26  1  0  0  0
  5 27  1  0  0  0
  6  7  1  0  0  0
  6 28  1  0  0  0
  6 46  1  0  0  0
  7  8  1  0  0  0
  7 29  1  0  0  0
  7 30  1  0  0  0
  8 31  1  0  0  0
  8 32  1  0  0  0
  8 33  1  0  0  0
  9 10  1  0  0  0
  9 34  1  0  0  0
  9 35  1  0  0  0
  9 46  1  0  0  0
 10 11  1  0  0  0
 10 13  1  0  0  0
 10 16  1  0  0  0
 11 12  1  0  0  0
 11 36  1  0  0  0
 11 37  1  0  0  0
 12 38  1  0  0  0
 12 39  1  0  0  0
 12 40  1  0  0  0
 13 14  1  0  0  0
 13 41  1  0  0  0
 13 42  1  0  0  0
 14 15  1  0  0  0
 14 43  1  0  0  0
 14 46  1  0  0  0
 15 16  1  0  0  0
 15 44  1  0  0  0
 15 45  1  0  0  0
 46 47  1  0  0  0
M  CHG  1  46   1
M  END
> <energy>
264.997

> <chiral flag>
0

> <version>
0

> <i_ionizer_Ion_state_n>
1

> <i_ionizer_Tot_Q>
1

> <s_ionizer_Ion_centers>
46

> <s_ionizer_Ion_types>
N5

> <s_ionizer_Ion_ctrs_in>
9

> <r_ionizer_Ionization_penalty>
0.41068

> <r_ionizer_Ionization_penalty_charging>
0.41068

> <r_ionizer_Ionization_penalty_neutral>
0

$$$$
ZINC001258444255
                    3D
 Structure written by MMmdl.
 53 52  0  0  1  0            999 V2000
   -4.5079   -0.8452   -0.7550 C   0  0  0  0  0  0
   -4.4523   -0.3394    0.6789 C   0  0  0  0  0  0
   -3.3295    0.6710    0.9319 C   0  0  0  0  0  0
   -1.9127    0.0996    0.7621 C   0  0  0  0  0  0
   -0.8330    1.1489    1.0973 C   0  0  0  0  0  0
    0.3835    1.3022    0.1304 C   0  0  2  0  0  0
   -0.0368    1.5072   -1.3457 C   0  0  0  0  0  0
   -0.8993    2.7416   -1.5722 C   0  0  0  0  0  0
    1.1601   -1.0359    0.6651 C   0  0  0  0  0  0
    0.7710   -2.0049   -0.4750 C   0  0  0  0  0  0
   -0.0504   -4.2141   -0.9881 C   0  0  0  0  0  0
    2.8647    0.7960    0.3867 C   0  0  0  0  0  0
    3.9157   -0.2689   -0.0234 C   0  0  0  0  0  0
    3.0837    1.1535    1.8693 C   0  0  0  0  0  0
    3.2086    2.0459   -0.4656 C   0  0  0  0  0  0
   -3.6554   -1.4911   -0.9848 H   0  0  0  0  0  0
   -4.5133   -0.0124   -1.4658 H   0  0  0  0  0  0
   -5.4176   -1.4343   -0.9119 H   0  0  0  0  0  0
   -4.3544   -1.1893    1.3620 H   0  0  0  0  0  0
   -5.4099    0.1437    0.9133 H   0  0  0  0  0  0
   -3.4390    1.0577    1.9531 H   0  0  0  0  0  0
   -3.4665    1.5237    0.2568 H   0  0  0  0  0  0
   -1.7954   -0.2832   -0.2516 H   0  0  0  0  0  0
   -1.8072   -0.7569    1.4395 H   0  0  0  0  0  0
   -1.3132    2.1333    1.1654 H   0  0  0  0  0  0
   -0.4643    0.9660    2.1167 H   0  0  0  0  0  0
    0.8066    2.2567    0.4625 H   0  0  0  0  0  0
    0.8524    1.6066   -1.9795 H   0  0  0  0  0  0
   -0.5646    0.6290   -1.7301 H   0  0  0  0  0  0
   -1.0936    2.8672   -2.6422 H   0  0  0  0  0  0
   -0.3916    3.6421   -1.2121 H   0  0  0  0  0  0
   -1.8655    2.6640   -1.0689 H   0  0  0  0  0  0
    0.3829   -1.0118    1.4297 H   0  0  0  0  0  0
    2.0051   -1.4744    1.2045 H   0  0  0  0  0  0
    1.6103   -2.1013   -1.1757 H   0  0  0  0  0  0
   -0.0781   -1.6022   -1.0359 H   0  0  0  0  0  0
   -0.9546   -3.8181   -1.4647 H   0  0  0  0  0  0
   -0.3088   -5.1834   -0.5524 H   0  0  0  0  0  0
    0.7151   -4.3812   -1.7534 H   0  0  0  0  0  0
    3.9772   -1.1032    0.6829 H   0  0  0  0  0  0
    3.7011   -0.6740   -1.0181 H   0  0  0  0  0  0
    4.9216    0.1673   -0.0687 H   0  0  0  0  0  0
    2.4554    1.9951    2.1850 H   0  0  0  0  0  0
    2.8648    0.3064    2.5308 H   0  0  0  0  0  0
    4.1283    1.4429    2.0504 H   0  0  0  0  0  0
    2.6200    2.9291   -0.1987 H   0  0  0  0  0  0
    4.2584    2.3383   -0.3256 H   0  0  0  0  0  0
    3.0741    1.8478   -1.5346 H   0  0  0  0  0  0
    1.4938    0.2602   -0.0254 N   0  3  2  0  0  0
    1.5543    0.0480   -1.0281 H   0  0  0  0  0  0
    0.4254   -3.3305    0.0760 N   0  3  0  0  0  0
    1.2581   -3.7436    0.5122 H   0  0  0  0  0  0
   -0.3125   -3.2222    0.7816 H   0  0  0  0  0  0
  1  2  1  0  0  0
  1 16  1  0  0  0
  1 17  1  0  0  0
  1 18  1  0  0  0
  2  3  1  0  0  0
  2 19  1  0  0  0
  2 20  1  0  0  0
  3  4  1  0  0  0
  3 21  1  0  0  0
  3 22  1  0  0  0
  4  5  1  0  0  0
  4 23  1  0  0  0
  4 24  1  0  0  0
  5  6  1  0  0  0
  5 25  1  0  0  0
  5 26  1  0  0  0
  6  7  1  0  0  0
  6 27  1  0  0  0
  6 49  1  0  0  0
  7  8  1  0  0  0
  7 28  1  0  0  0
  7 29  1  0  0  0
  8 30  1  0  0  0
  8 31  1  0  0  0
  8 32  1  0  0  0
  9 10  1  0  0  0
  9 33  1  0  0  0
  9 34  1  0  0  0
  9 49  1  0  0  0
 10 35  1  0  0  0
 10 36  1  0  0  0
 10 51  1  0  0  0
 11 37  1  0  0  0
 11 38  1  0  0  0
 11 39  1  0  0  0
 11 51  1  0  0  0
 12 13  1  0  0  0
 12 14  1  0  0  0
 12 15  1  0  0  0
 12 49  1  0  0  0
 13 40  1  0  0  0
 13 41  1  0  0  0
 13 42  1  0  0  0
 14 43  1  0  0  0
 14 44  1  0  0  0
 14 45  1  0  0  0
 15 46  1  0  0  0
 15 47  1  0  0  0
 15 48  1  0  0  0
 49 50  1  0  0  0
 51 52  1  0  0  0
 51 53  1  0  0  0
M  CHG  2  49   1  51   1
M  END
> <energy>
52.2307

> <chiral flag>
0

> <version>
0

> <i_ionizer_Ion_state_n>
3

> <i_ionizer_Tot_Q>
2

> <s_ionizer_Ion_centers>
49_51

> <s_ionizer_Ion_types>
N5_N5

> <s_ionizer_Ion_ctrs_in>
9_12

> <r_ionizer_Ionization_penalty>
0.481402

> <r_ionizer_Ionization_penalty_charging>
0.481402

> <r_ionizer_Ionization_penalty_neutral>
0

$$$$
ZINC001258444256
                    3D
 Structure written by MMmdl.
 53 52  0  0  1  0            999 V2000
   -3.7806    1.0282    3.4655 C   0  0  0  0  0  0
   -2.8324    0.4738    2.4101 C   0  0  0  0  0  0
   -1.9064    1.5655    1.8769 C   0  0  0  0  0  0
   -0.8872    1.0450    0.8569 C   0  0  0  0  0  0
   -1.4967    0.6576   -0.4971 C   0  0  0  0  0  0
   -0.4911    0.3989   -1.6535 C   0  0  1  0  0  0
   -0.1044    1.6759   -2.4625 C   0  0  0  0  0  0
    0.0902    2.9825   -1.7075 C   0  0  0  0  0  0
    1.9498    0.0433   -1.1211 C   0  0  0  0  0  0
    2.7987   -0.3129    0.1283 C   0  0  0  0  0  0
    3.1725    0.0546    2.4850 C   0  0  0  0  0  0
    0.4110   -1.9866   -1.3506 C   0  0  0  0  0  0
    1.6441   -2.7094   -1.9535 C   0  0  0  0  0  0
    0.1316   -2.5456    0.0606 C   0  0  0  0  0  0
   -0.7812   -2.4483   -2.2339 C   0  0  0  0  0  0
   -4.4203    0.2293    3.8586 H   0  0  0  0  0  0
   -3.2229    1.4627    4.3038 H   0  0  0  0  0  0
   -4.4277    1.8057    3.0444 H   0  0  0  0  0  0
   -3.4198    0.0338    1.5970 H   0  0  0  0  0  0
   -2.2378   -0.3331    2.8551 H   0  0  0  0  0  0
   -1.3513    1.9917    2.7234 H   0  0  0  0  0  0
   -2.4899    2.3823    1.4364 H   0  0  0  0  0  0
   -0.3761    0.1829    1.2922 H   0  0  0  0  0  0
   -0.1364    1.8274    0.7237 H   0  0  0  0  0  0
   -2.0843   -0.2573   -0.3510 H   0  0  0  0  0  0
   -2.2125    1.4242   -0.8179 H   0  0  0  0  0  0
   -1.0803   -0.1243   -2.4108 H   0  0  0  0  0  0
    0.7877    1.4762   -3.0687 H   0  0  0  0  0  0
   -0.9010    1.8505   -3.2014 H   0  0  0  0  0  0
    0.4232    3.7572   -2.4060 H   0  0  0  0  0  0
    0.8452    2.9194   -0.9210 H   0  0  0  0  0  0
   -0.8485    3.3286   -1.2657 H   0  0  0  0  0  0
    2.5243   -0.2030   -2.0238 H   0  0  0  0  0  0
    1.9210    1.1336   -1.1143 H   0  0  0  0  0  0
    2.8497   -1.3905    0.2887 H   0  0  0  0  0  0
    3.8244    0.0201   -0.0781 H   0  0  0  0  0  0
    3.1774   -1.0154    2.7092 H   0  0  0  0  0  0
    4.1988    0.3939    2.3202 H   0  0  0  0  0  0
    2.7880    0.5719    3.3662 H   0  0  0  0  0  0
    1.4497   -3.7837   -2.0645 H   0  0  0  0  0  0
    2.5419   -2.6315   -1.3364 H   0  0  0  0  0  0
    1.8824   -2.3212   -2.9520 H   0  0  0  0  0  0
    0.8937   -2.2604    0.7893 H   0  0  0  0  0  0
    0.0945   -3.6418    0.0482 H   0  0  0  0  0  0
   -0.8328   -2.1928    0.4429 H   0  0  0  0  0  0
   -0.8368   -3.5437   -2.2829 H   0  0  0  0  0  0
   -1.7470   -2.1154   -1.8379 H   0  0  0  0  0  0
   -0.6752   -2.0932   -3.2656 H   0  0  0  0  0  0
    0.5392   -0.4921   -0.9830 N   0  3  2  0  0  0
    0.3265   -0.4425    0.0202 H   0  0  0  0  0  0
    2.3086    0.3592    1.3477 N   0  3  0  0  0  0
    2.2996    1.3742    1.1932 H   0  0  0  0  0  0
    1.3557    0.0356    1.5517 H   0  0  0  0  0  0
  1  2  1  0  0  0
  1 16  1  0  0  0
  1 17  1  0  0  0
  1 18  1  0  0  0
  2  3  1  0  0  0
  2 19  1  0  0  0
  2 20  1  0  0  0
  3  4  1  0  0  0
  3 21  1  0  0  0
  3 22  1  0  0  0
  4  5  1  0  0  0
  4 23  1  0  0  0
  4 24  1  0  0  0
  5  6  1  0  0  0
  5 25  1  0  0  0
  5 26  1  0  0  0
  6  7  1  0  0  0
  6 27  1  0  0  0
  6 49  1  0  0  0
  7  8  1  0  0  0
  7 28  1  0  0  0
  7 29  1  0  0  0
  8 30  1  0  0  0
  8 31  1  0  0  0
  8 32  1  0  0  0
  9 10  1  0  0  0
  9 33  1  0  0  0
  9 34  1  0  0  0
  9 49  1  0  0  0
 10 35  1  0  0  0
 10 36  1  0  0  0
 10 51  1  0  0  0
 11 37  1  0  0  0
 11 38  1  0  0  0
 11 39  1  0  0  0
 11 51  1  0  0  0
 12 13  1  0  0  0
 12 14  1  0  0  0
 12 15  1  0  0  0
 12 49  1  0  0  0
 13 40  1  0  0  0
 13 41  1  0  0  0
 13 42  1  0  0  0
 14 43  1  0  0  0
 14 44  1  0  0  0
 14 45  1  0  0  0
 15 46  1  0  0  0
 15 47  1  0  0  0
 15 48  1  0  0  0
 49 50  1  0  0  0
 51 52  1  0  0  0
 51 53  1  0  0  0
M  CHG  2  49   1  51   1
M  END
> <energy>
62.9351

> <chiral flag>
0

> <version>
0

> <i_ionizer_Ion_state_n>
3

> <i_ionizer_Tot_Q>
2

> <s_ionizer_Ion_centers>
49_51

> <s_ionizer_Ion_types>
N5_N5

> <s_ionizer_Ion_ctrs_in>
9_12

> <r_ionizer_Ionization_penalty>
0.481402

> <r_ionizer_Ionization_penalty_charging>
0.481402

> <r_ionizer_Ionization_penalty_neutral>
0

$$$$
ZINC001258444450
                    3D
 Structure written by MMmdl.
 47 48  0  0  1  0            999 V2000
   -5.4642   -0.1496    0.5684 C   0  0  0  0  0  0
   -4.0867   -0.7218    0.2654 C   0  0  0  0  0  0
   -3.1222   -0.5303    1.4377 C   0  0  0  0  0  0
   -1.7456   -1.1535    1.1790 C   0  0  0  0  0  0
   -0.8577   -0.2969    0.2596 C   0  0  0  0  0  0
    0.4888   -1.0019   -0.0671 C   0  0  1  0  0  0
    0.6102   -1.4457   -1.5441 C   0  0  0  0  0  0
   -0.4529   -2.4493   -1.9705 C   0  0  0  0  0  0
    1.8976   -0.2769    1.8024 C   0  0  0  0  0  0
    3.0116    0.7199    2.0093 C   0  0  0  0  0  0
    2.6451    1.8120    1.0217 C   0  0  0  0  0  0
    2.0594    1.0488   -0.1940 C   0  0  2  0  0  0
    3.1424    0.8864   -1.2607 C   0  0  0  0  0  0
    3.1336    2.2210   -1.9817 C   0  0  0  0  0  0
    1.8553    2.8280   -1.7669 O   0  0  0  0  0  0
    1.0705    1.9475   -0.9454 C   0  0  0  0  0  0
   -5.8953   -0.6057    1.4670 H   0  0  0  0  0  0
   -6.1485   -0.3395   -0.2652 H   0  0  0  0  0  0
   -5.4109    0.9329    0.7271 H   0  0  0  0  0  0
   -3.6931   -0.2349   -0.6326 H   0  0  0  0  0  0
   -4.1877   -1.7886    0.0398 H   0  0  0  0  0  0
   -3.5530   -1.0019    2.3318 H   0  0  0  0  0  0
   -3.0157    0.5364    1.6673 H   0  0  0  0  0  0
   -1.2359   -1.2745    2.1442 H   0  0  0  0  0  0
   -1.8705   -2.1604    0.7631 H   0  0  0  0  0  0
   -1.3910   -0.0416   -0.6613 H   0  0  0  0  0  0
   -0.6833    0.6524    0.7801 H   0  0  0  0  0  0
    0.5116   -1.9451    0.4964 H   0  0  0  0  0  0
    0.5661   -0.5924   -2.2267 H   0  0  0  0  0  0
    1.5906   -1.9192   -1.6978 H   0  0  0  0  0  0
   -0.4371   -3.3302   -1.3229 H   0  0  0  0  0  0
   -0.2614   -2.7791   -2.9963 H   0  0  0  0  0  0
   -1.4553   -2.0119   -1.9463 H   0  0  0  0  0  0
    2.1808   -1.2690    2.1686 H   0  0  0  0  0  0
    1.0064    0.0568    2.3441 H   0  0  0  0  0  0
    3.0582    1.0927    3.0358 H   0  0  0  0  0  0
    3.9820    0.2788    1.7555 H   0  0  0  0  0  0
    3.5144    2.4359    0.7853 H   0  0  0  0  0  0
    1.8849    2.4571    1.4800 H   0  0  0  0  0  0
    2.8852    0.0994   -1.9786 H   0  0  0  0  0  0
    4.1331    0.6416   -0.8641 H   0  0  0  0  0  0
    3.3016    2.0989   -3.0560 H   0  0  0  0  0  0
    3.8999    2.9003   -1.5951 H   0  0  0  0  0  0
    0.4333    2.5437   -0.2852 H   0  0  0  0  0  0
    0.4156    1.3986   -1.6250 H   0  0  0  0  0  0
    1.8058   -0.3396    0.3522 N   0  3  2  0  0  0
    2.5624   -0.9422    0.0076 H   0  0  0  0  0  0
  1  2  1  0  0  0
  1 17  1  0  0  0
  1 18  1  0  0  0
  1 19  1  0  0  0
  2  3  1  0  0  0
  2 20  1  0  0  0
  2 21  1  0  0  0
  3  4  1  0  0  0
  3 22  1  0  0  0
  3 23  1  0  0  0
  4  5  1  0  0  0
  4 24  1  0  0  0
  4 25  1  0  0  0
  5  6  1  0  0  0
  5 26  1  0  0  0
  5 27  1  0  0  0
  6  7  1  0  0  0
  6 28  1  0  0  0
  6 46  1  0  0  0
  7  8  1  0  0  0
  7 29  1  0  0  0
  7 30  1  0  0  0
  8 31  1  0  0  0
  8 32  1  0  0  0
  8 33  1  0  0  0
  9 10  1  0  0  0
  9 34  1  0  0  0
  9 35  1  0  0  0
  9 46  1  0  0  0
 10 11  1  0  0  0
 10 36  1  0  0  0
 10 37  1  0  0  0
 11 12  1  0  0  0
 11 38  1  0  0  0
 11 39  1  0  0  0
 12 13  1  0  0  0
 12 16  1  0  0  0
 12 46  1  0  0  0
 13 14  1  0  0  0
 13 40  1  0  0  0
 13 41  1  0  0  0
 14 15  1  0  0  0
 14 42  1  0  0  0
 14 43  1  0  0  0
 15 16  1  0  0  0
 16 44  1  0  0  0
 16 45  1  0  0  0
 46 47  1  0  0  0
M  CHG  1  46   1
M  END
> <energy>
48.4747

> <chiral flag>
0

> <version>
0

> <i_ionizer_Ion_state_n>
1

> <i_ionizer_Tot_Q>
1

> <s_ionizer_Ion_centers>
46

> <s_ionizer_Ion_types>
N5

> <s_ionizer_Ion_ctrs_in>
9

> <r_ionizer_Ionization_penalty>
0.00148639

> <r_ionizer_Ionization_penalty_charging>
0.00148639

> <r_ionizer_Ionization_penalty_neutral>
0

$$$$
ZINC001258444451
                    3D
 Structure written by MMmdl.
 47 48  0  0  1  0            999 V2000
    4.3983   -0.3621   -0.7363 C   0  0  0  0  0  0
    4.0203   -1.4055    0.3035 C   0  0  0  0  0  0
    2.9684   -2.4011   -0.1900 C   0  0  0  0  0  0
    1.5848   -1.8132   -0.4948 C   0  0  0  0  0  0
    0.8607   -1.3016    0.7570 C   0  0  0  0  0  0
   -0.6218   -0.8706    0.5551 C   0  0  2  0  0  0
   -1.4811   -2.0712    0.0857 C   0  0  0  0  0  0
   -2.9799   -1.8746    0.2656 C   0  0  0  0  0  0
   -1.0200    0.2505   -1.6694 C   0  0  0  0  0  0
   -0.7180    1.6566   -2.1460 C   0  0  0  0  0  0
   -1.0752    2.5457   -0.9604 C   0  0  0  0  0  0
   -1.1253    1.6016    0.2706 C   0  0  2  0  0  0
   -2.5264    1.6077    0.8769 C   0  0  0  0  0  0
   -2.5341    2.9014    1.6707 C   0  0  0  0  0  0
   -1.1850    3.1481    2.0904 O   0  0  0  0  0  0
   -0.3262    2.1921    1.4396 C   0  0  0  0  0  0
    5.2356    0.2430   -0.3718 H   0  0  0  0  0  0
    4.7065   -0.8358   -1.6747 H   0  0  0  0  0  0
    3.5661    0.3163   -0.9466 H   0  0  0  0  0  0
    4.9241   -1.9673    0.5696 H   0  0  0  0  0  0
    3.6831   -0.9089    1.2187 H   0  0  0  0  0  0
    2.8596   -3.1939    0.5613 H   0  0  0  0  0  0
    3.3450   -2.8896   -1.0976 H   0  0  0  0  0  0
    1.6753   -1.0153   -1.2381 H   0  0  0  0  0  0
    0.9903   -2.6081   -0.9589 H   0  0  0  0  0  0
    0.8867   -2.0831    1.5272 H   0  0  0  0  0  0
    1.4170   -0.4532    1.1759 H   0  0  0  0  0  0
   -0.9726   -0.6226    1.5646 H   0  0  0  0  0  0
   -1.1957   -2.9596    0.6653 H   0  0  0  0  0  0
   -1.2781   -2.3222   -0.9611 H   0  0  0  0  0  0
   -3.5138   -2.7816   -0.0358 H   0  0  0  0  0  0
   -3.2267   -1.6742    1.3128 H   0  0  0  0  0  0
   -3.3630   -1.0523   -0.3415 H   0  0  0  0  0  0
   -2.0864    0.0368   -1.7947 H   0  0  0  0  0  0
   -0.4426   -0.4796   -2.2422 H   0  0  0  0  0  0
   -1.2829    1.9250   -3.0435 H   0  0  0  0  0  0
    0.3495    1.7617   -2.3760 H   0  0  0  0  0  0
   -2.0416    3.0269   -1.1521 H   0  0  0  0  0  0
   -0.3281    3.3414   -0.8613 H   0  0  0  0  0  0
   -2.6655    0.7773    1.5774 H   0  0  0  0  0  0
   -3.3396    1.5613    0.1468 H   0  0  0  0  0  0
   -2.8550    3.7496    1.0574 H   0  0  0  0  0  0
   -3.1855    2.8483    2.5484 H   0  0  0  0  0  0
    0.6026    2.6853    1.1341 H   0  0  0  0  0  0
   -0.0718    1.4361    2.1916 H   0  0  0  0  0  0
   -0.4929    0.3997   -0.3060 N   0  3  1  0  0  0
    0.5129    0.5911   -0.3834 H   0  0  0  0  0  0
  1  2  1  0  0  0
  1 17  1  0  0  0
  1 18  1  0  0  0
  1 19  1  0  0  0
  2  3  1  0  0  0
  2 20  1  0  0  0
  2 21  1  0  0  0
  3  4  1  0  0  0
  3 22  1  0  0  0
  3 23  1  0  0  0
  4  5  1  0  0  0
  4 24  1  0  0  0
  4 25  1  0  0  0
  5  6  1  0  0  0
  5 26  1  0  0  0
  5 27  1  0  0  0
  6  7  1  0  0  0
  6 28  1  0  0  0
  6 46  1  0  0  0
  7  8  1  0  0  0
  7 29  1  0  0  0
  7 30  1  0  0  0
  8 31  1  0  0  0
  8 32  1  0  0  0
  8 33  1  0  0  0
  9 10  1  0  0  0
  9 34  1  0  0  0
  9 35  1  0  0  0
  9 46  1  0  0  0
 10 11  1  0  0  0
 10 36  1  0  0  0
 10 37  1  0  0  0
 11 12  1  0  0  0
 11 38  1  0  0  0
 11 39  1  0  0  0
 12 13  1  0  0  0
 12 16  1  0  0  0
 12 46  1  0  0  0
 13 14  1  0  0  0
 13 40  1  0  0  0
 13 41  1  0  0  0
 14 15  1  0  0  0
 14 42  1  0  0  0
 14 43  1  0  0  0
 15 16  1  0  0  0
 16 44  1  0  0  0
 16 45  1  0  0  0
 46 47  1  0  0  0
M  CHG  1  46   1
M  END
> <energy>
46.848

> <chiral flag>
0

> <version>
0

> <i_ionizer_Ion_state_n>
1

> <i_ionizer_Tot_Q>
1

> <s_ionizer_Ion_centers>
46

> <s_ionizer_Ion_types>
N5

> <s_ionizer_Ion_ctrs_in>
9

> <r_ionizer_Ionization_penalty>
0.00148639

> <r_ionizer_Ionization_penalty_charging>
0.00148639

> <r_ionizer_Ionization_penalty_neutral>
0

$$$$
ZINC001258444452
                    3D
 Structure written by MMmdl.
 47 48  0  0  1  0            999 V2000
   -4.1686   -0.2085   -1.8314 C   0  0  0  0  0  0
   -3.5739    0.2056   -0.4926 C   0  0  0  0  0  0
   -2.4556   -0.7494   -0.0682 C   0  0  0  0  0  0
   -1.9286   -0.4243    1.3245 C   0  0  0  0  0  0
   -0.7934   -1.3352    1.8348 C   0  0  0  0  0  0
    0.6565   -1.1423    1.2695 C   0  0  1  0  0  0
    1.0574   -2.3045    0.3320 C   0  0  0  0  0  0
    0.2906   -2.4969   -0.9617 C   0  0  0  0  0  0
    1.1669    1.0426    2.2126 C   0  0  0  0  0  0
    1.5927    2.4079    1.7369 C   0  0  0  0  0  0
    2.4537    2.0599    0.5434 C   0  0  0  0  0  0
    1.7516    0.8341   -0.1033 C   0  0  1  0  0  0
    0.8460    1.3377   -1.2291 C   0  0  0  0  0  0
    1.7973    1.5515   -2.3988 C   0  0  0  0  0  0
    3.0238    0.8698   -2.0947 O   0  0  0  0  0  0
    2.7852    0.0646   -0.9253 C   0  0  0  0  0  0
   -4.9420    0.5020   -2.1408 H   0  0  0  0  0  0
   -3.4002   -0.2378   -2.6092 H   0  0  0  0  0  0
   -4.6248   -1.2003   -1.7614 H   0  0  0  0  0  0
   -4.3651    0.2259    0.2657 H   0  0  0  0  0  0
   -3.1746    1.2242   -0.5741 H   0  0  0  0  0  0
   -2.8266   -1.7800   -0.0840 H   0  0  0  0  0  0
   -1.6534   -0.6752   -0.8012 H   0  0  0  0  0  0
   -2.7661   -0.5343    2.0255 H   0  0  0  0  0  0
   -1.6394    0.6290    1.3810 H   0  0  0  0  0  0
   -1.1030   -2.3838    1.7411 H   0  0  0  0  0  0
   -0.7299   -1.1513    2.9168 H   0  0  0  0  0  0
    1.3072   -1.3788    2.1289 H   0  0  0  0  0  0
    2.1328   -2.2548    0.1306 H   0  0  0  0  0  0
    0.9539   -3.2415    0.8981 H   0  0  0  0  0  0
    0.7831   -3.2648   -1.5690 H   0  0  0  0  0  0
    0.2428   -1.5915   -1.5647 H   0  0  0  0  0  0
   -0.7240   -2.8540   -0.7656 H   0  0  0  0  0  0
    0.2836    1.1071    2.8574 H   0  0  0  0  0  0
    1.9859    0.5942    2.7898 H   0  0  0  0  0  0
    2.1455    2.9659    2.4977 H   0  0  0  0  0  0
    0.7272    3.0044    1.4306 H   0  0  0  0  0  0
    2.5600    2.9212   -0.1248 H   0  0  0  0  0  0
    3.4555    1.7853    0.9005 H   0  0  0  0  0  0
    0.1024    0.5898   -1.5144 H   0  0  0  0  0  0
    0.2898    2.2498   -0.9842 H   0  0  0  0  0  0
    2.0198    2.6120   -2.5554 H   0  0  0  0  0  0
    1.3804    1.1453   -3.3262 H   0  0  0  0  0  0
    3.7287   -0.1090   -0.3972 H   0  0  0  0  0  0
    2.4288   -0.8846   -1.3159 H   0  0  0  0  0  0
    0.7882    0.3685    0.9918 N   0  3  1  0  0  0
   -0.1464    0.6931    0.7172 H   0  0  0  0  0  0
  1  2  1  0  0  0
  1 17  1  0  0  0
  1 18  1  0  0  0
  1 19  1  0  0  0
  2  3  1  0  0  0
  2 20  1  0  0  0
  2 21  1  0  0  0
  3  4  1  0  0  0
  3 22  1  0  0  0
  3 23  1  0  0  0
  4  5  1  0  0  0
  4 24  1  0  0  0
  4 25  1  0  0  0
  5  6  1  0  0  0
  5 26  1  0  0  0
  5 27  1  0  0  0
  6  7  1  0  0  0
  6 28  1  0  0  0
  6 46  1  0  0  0
  7  8  1  0  0  0
  7 29  1  0  0  0
  7 30  1  0  0  0
  8 31  1  0  0  0
  8 32  1  0  0  0
  8 33  1  0  0  0
  9 10  1  0  0  0
  9 34  1  0  0  0
  9 35  1  0  0  0
  9 46  1  0  0  0
 10 11  1  0  0  0
 10 36  1  0  0  0
 10 37  1  0  0  0
 11 12  1  0  0  0
 11 38  1  0  0  0
 11 39  1  0  0  0
 12 13  1  0  0  0
 12 16  1  0  0  0
 12 46  1  0  0  0
 13 14  1  0  0  0
 13 40  1  0  0  0
 13 41  1  0  0  0
 14 15  1  0  0  0
 14 42  1  0  0  0
 14 43  1  0  0  0
 15 16  1  0  0  0
 16 44  1  0  0  0
 16 45  1  0  0  0
 46 47  1  0  0  0
M  CHG  1  46   1
M  END
> <energy>
61.1902

> <chiral flag>
0

> <version>
0

> <i_ionizer_Ion_state_n>
1

> <i_ionizer_Tot_Q>
1

> <s_ionizer_Ion_centers>
46

> <s_ionizer_Ion_types>
N5

> <s_ionizer_Ion_ctrs_in>
9

> <r_ionizer_Ionization_penalty>
0.00148639

> <r_ionizer_Ionization_penalty_charging>
0.00148639

> <r_ionizer_Ionization_penalty_neutral>
0

$$$$
ZINC001258444453
                    3D
 Structure written by MMmdl.
 47 48  0  0  1  0            999 V2000
   -4.8248    0.3437    1.7115 C   0  0  0  0  0  0
   -3.4207    0.3379    1.1302 C   0  0  0  0  0  0
   -3.3974   -0.2671   -0.2762 C   0  0  0  0  0  0
   -2.0047   -0.1968   -0.9104 C   0  0  0  0  0  0
   -1.0547   -1.2917   -0.3957 C   0  0  0  0  0  0
    0.4415   -0.9759   -0.6635 C   0  0  2  0  0  0
    1.3397   -2.2201   -0.4477 C   0  0  0  0  0  0
    1.0257   -3.1128    0.7467 C   0  0  0  0  0  0
    0.9862    0.1618    1.5040 C   0  0  0  0  0  0
    1.4139    1.5690    1.8988 C   0  0  0  0  0  0
    1.6503    2.2985    0.5829 C   0  0  0  0  0  0
    1.8079    1.1874   -0.4630 C   0  0  1  0  0  0
    1.5685    1.6912   -1.8782 C   0  0  0  0  0  0
    2.4693    0.8298   -2.7450 C   0  0  0  0  0  0
    3.4406    0.2026   -1.8995 O   0  0  0  0  0  0
    3.2579    0.6954   -0.5659 C   0  0  0  0  0  0
   -5.5085    0.9187    1.0790 H   0  0  0  0  0  0
   -4.8207    0.7962    2.7083 H   0  0  0  0  0  0
   -5.2131   -0.6755    1.8024 H   0  0  0  0  0  0
   -3.0445    1.3673    1.0987 H   0  0  0  0  0  0
   -2.7627   -0.2224    1.8011 H   0  0  0  0  0  0
   -4.0945    0.2931   -0.9119 H   0  0  0  0  0  0
   -3.7520   -1.3041   -0.2503 H   0  0  0  0  0  0
   -1.5931    0.8036   -0.7445 H   0  0  0  0  0  0
   -2.1038   -0.3160   -1.9975 H   0  0  0  0  0  0
   -1.3242   -2.2309   -0.8977 H   0  0  0  0  0  0
   -1.2175   -1.4638    0.6741 H   0  0  0  0  0  0
    0.4911   -0.7599   -1.7359 H   0  0  0  0  0  0
    2.3921   -1.9257   -0.3981 H   0  0  0  0  0  0
    1.2608   -2.8463   -1.3459 H   0  0  0  0  0  0
    1.7513   -3.9313    0.7936 H   0  0  0  0  0  0
    0.0337   -3.5660    0.6592 H   0  0  0  0  0  0
    1.0731   -2.5797    1.6969 H   0  0  0  0  0  0
    1.7831   -0.5332    1.7826 H   0  0  0  0  0  0
    0.0696   -0.1246    2.0291 H   0  0  0  0  0  0
    0.6438    2.0763    2.4884 H   0  0  0  0  0  0
    2.3314    1.5375    2.4959 H   0  0  0  0  0  0
    0.7716    2.9180    0.3543 H   0  0  0  0  0  0
    2.5152    2.9676    0.6452 H   0  0  0  0  0  0
    1.8857    2.7380   -1.9685 H   0  0  0  0  0  0
    0.5241    1.6544   -2.2029 H   0  0  0  0  0  0
    2.9906    1.4281   -3.4995 H   0  0  0  0  0  0
    1.9157    0.0448   -3.2679 H   0  0  0  0  0  0
    3.5282   -0.0808    0.1546 H   0  0  0  0  0  0
    3.9684    1.5205   -0.4320 H   0  0  0  0  0  0
    0.7039    0.3524    0.0821 N   0  3  1  0  0  0
   -0.1605    0.9010    0.0041 H   0  0  0  0  0  0
  1  2  1  0  0  0
  1 17  1  0  0  0
  1 18  1  0  0  0
  1 19  1  0  0  0
  2  3  1  0  0  0
  2 20  1  0  0  0
  2 21  1  0  0  0
  3  4  1  0  0  0
  3 22  1  0  0  0
  3 23  1  0  0  0
  4  5  1  0  0  0
  4 24  1  0  0  0
  4 25  1  0  0  0
  5  6  1  0  0  0
  5 26  1  0  0  0
  5 27  1  0  0  0
  6  7  1  0  0  0
  6 28  1  0  0  0
  6 46  1  0  0  0
  7  8  1  0  0  0
  7 29  1  0  0  0
  7 30  1  0  0  0
  8 31  1  0  0  0
  8 32  1  0  0  0
  8 33  1  0  0  0
  9 10  1  0  0  0
  9 34  1  0  0  0
  9 35  1  0  0  0
  9 46  1  0  0  0
 10 11  1  0  0  0
 10 36  1  0  0  0
 10 37  1  0  0  0
 11 12  1  0  0  0
 11 38  1  0  0  0
 11 39  1  0  0  0
 12 13  1  0  0  0
 12 16  1  0  0  0
 12 46  1  0  0  0
 13 14  1  0  0  0
 13 40  1  0  0  0
 13 41  1  0  0  0
 14 15  1  0  0  0
 14 42  1  0  0  0
 14 43  1  0  0  0
 15 16  1  0  0  0
 16 44  1  0  0  0
 16 45  1  0  0  0
 46 47  1  0  0  0
M  CHG  1  46   1
M  END
> <energy>
49.7853

> <chiral flag>
0

> <version>
0

> <i_ionizer_Ion_state_n>
1

> <i_ionizer_Tot_Q>
1

> <s_ionizer_Ion_centers>
46

> <s_ionizer_Ion_types>
N5

> <s_ionizer_Ion_ctrs_in>
9

> <r_ionizer_Ionization_penalty>
0.00148639

> <r_ionizer_Ionization_penalty_charging>
0.00148639

> <r_ionizer_Ionization_penalty_neutral>
0

$$$$
ZINC001258444470
                    3D
 Structure written by MMmdl.
 42 41  0  0  1  0            999 V2000
   -4.2902    1.3389    0.0014 C   0  0  0  0  0  0
   -2.8486    0.9603    0.3241 C   0  0  0  0  0  0
   -2.7524   -0.4509    0.9149 C   0  0  0  0  0  0
   -1.3187   -0.8662    1.2843 C   0  0  0  0  0  0
   -0.4235   -1.1478    0.0647 C   0  0  0  0  0  0
    1.0581   -1.4152    0.4311 C   0  0  1  0  0  0
    1.8547   -2.0390   -0.7458 C   0  0  0  0  0  0
    1.4987   -3.4936   -1.0372 C   0  0  0  0  0  0
    2.3316   -0.4910    2.3021 C   0  0  0  0  0  0
    1.4298    1.0856    0.6721 C   0  0  0  0  0  0
    1.5361    1.5474   -0.7944 C   0  0  0  0  0  0
    0.7041    3.1709   -0.9561 S   0  0  0  0  0  0
    1.0978    3.5334   -2.6826 C   0  0  0  0  0  0
   -4.3288    2.3487   -0.4262 H   0  0  0  0  0  0
   -4.7310    0.6536   -0.7308 H   0  0  0  0  0  0
   -4.9147    1.3263    0.9018 H   0  0  0  0  0  0
   -2.2595    1.0369   -0.5932 H   0  0  0  0  0  0
   -2.4390    1.6884    1.0340 H   0  0  0  0  0  0
   -3.1726   -1.1832    0.2168 H   0  0  0  0  0  0
   -3.3613   -0.4930    1.8284 H   0  0  0  0  0  0
   -1.3769   -1.7859    1.8852 H   0  0  0  0  0  0
   -0.8856   -0.1104    1.9447 H   0  0  0  0  0  0
   -0.5089   -0.3497   -0.6748 H   0  0  0  0  0  0
   -0.8335   -2.0354   -0.4289 H   0  0  0  0  0  0
    1.0217   -2.1840    1.2206 H   0  0  0  0  0  0
    1.7359   -1.4451   -1.6590 H   0  0  0  0  0  0
    2.9228   -2.0208   -0.5028 H   0  0  0  0  0  0
    0.5522   -3.5907   -1.5805 H   0  0  0  0  0  0
    2.2813   -3.9465   -1.6591 H   0  0  0  0  0  0
    1.4367   -4.0818   -0.1136 H   0  0  0  0  0  0
    1.4999   -0.5004    3.0145 H   0  0  0  0  0  0
    3.0492    0.2778    2.6134 H   0  0  0  0  0  0
    2.8665   -1.4476    2.3854 H   0  0  0  0  0  0
    2.0682    1.7772    1.2405 H   0  0  0  0  0  0
    0.4243    1.2424    1.0655 H   0  0  0  0  0  0
    2.5876    1.6645   -1.0724 H   0  0  0  0  0  0
    1.0832    0.8448   -1.4949 H   0  0  0  0  0  0
    0.6843    4.5139   -2.9379 H   0  0  0  0  0  0
    2.1800    3.5629   -2.8268 H   0  0  0  0  0  0
    0.6494    2.7920   -3.3483 H   0  0  0  0  0  0
    1.9879   -0.3076    0.8851 N   0  3  2  0  0  0
    2.8500   -0.3834    0.3327 H   0  0  0  0  0  0
  1  2  1  0  0  0
  1 14  1  0  0  0
  1 15  1  0  0  0
  1 16  1  0  0  0
  2  3  1  0  0  0
  2 17  1  0  0  0
  2 18  1  0  0  0
  3  4  1  0  0  0
  3 19  1  0  0  0
  3 20  1  0  0  0
  4  5  1  0  0  0
  4 21  1  0  0  0
  4 22  1  0  0  0
  5  6  1  0  0  0
  5 23  1  0  0  0
  5 24  1  0  0  0
  6  7  1  0  0  0
  6 25  1  0  0  0
  6 41  1  0  0  0
  7  8  1  0  0  0
  7 26  1  0  0  0
  7 27  1  0  0  0
  8 28  1  0  0  0
  8 29  1  0  0  0
  8 30  1  0  0  0
  9 31  1  0  0  0
  9 32  1  0  0  0
  9 33  1  0  0  0
  9 41  1  0  0  0
 10 11  1  0  0  0
 10 34  1  0  0  0
 10 35  1  0  0  0
 10 41  1  0  0  0
 11 12  1  0  0  0
 11 36  1  0  0  0
 11 37  1  0  0  0
 12 13  1  0  0  0
 13 38  1  0  0  0
 13 39  1  0  0  0
 13 40  1  0  0  0
 41 42  1  0  0  0
M  CHG  1  41   1
M  END
> <energy>
35.7694

> <chiral flag>
0

> <version>
0

> <i_ionizer_Ion_state_n>
1

> <i_ionizer_Tot_Q>
1

> <s_ionizer_Ion_centers>
41

> <s_ionizer_Ion_types>
N5

> <s_ionizer_Ion_ctrs_in>
9

> <r_ionizer_Ionization_penalty>
0.00148639

> <r_ionizer_Ionization_penalty_charging>
0.00148639

> <r_ionizer_Ionization_penalty_neutral>
0

$$$$
ZINC001258444471
                    3D
 Structure written by MMmdl.
 42 41  0  0  1  0            999 V2000
   -3.4621    2.0663    1.3591 C   0  0  0  0  0  0
   -3.1493    2.1287   -0.1327 C   0  0  0  0  0  0
   -3.3153    0.7858   -0.8546 C   0  0  0  0  0  0
   -2.2901   -0.2964   -0.4814 C   0  0  0  0  0  0
   -0.9258   -0.0769   -1.1513 C   0  0  0  0  0  0
    0.2278   -1.0277   -0.7285 C   0  0  2  0  0  0
   -0.2014   -2.5173   -0.6748 C   0  0  0  0  0  0
    0.9521   -3.4674   -0.3548 C   0  0  0  0  0  0
    0.2059   -0.5455    1.7099 C   0  0  0  0  0  0
    1.8444    0.5370    0.2900 C   0  0  0  0  0  0
    3.1634    0.3817    1.0748 C   0  0  0  0  0  0
    4.2976    1.8007    0.8534 S   0  0  0  0  0  0
    4.7445    1.5646   -0.8873 C   0  0  0  0  0  0
   -3.4898    3.0809    1.7724 H   0  0  0  0  0  0
   -2.7023    1.5067    1.9103 H   0  0  0  0  0  0
   -4.4347    1.5989    1.5394 H   0  0  0  0  0  0
   -3.8374    2.8485   -0.5945 H   0  0  0  0  0  0
   -2.1407    2.5310   -0.2791 H   0  0  0  0  0  0
   -4.3217    0.3976   -0.6521 H   0  0  0  0  0  0
   -3.2707    0.9579   -1.9375 H   0  0  0  0  0  0
   -2.6927   -1.2553   -0.8298 H   0  0  0  0  0  0
   -2.2096   -0.3791    0.6024 H   0  0  0  0  0  0
   -0.5996    0.9596   -1.0250 H   0  0  0  0  0  0
   -1.0711   -0.2005   -2.2343 H   0  0  0  0  0  0
    0.9472   -0.9925   -1.5602 H   0  0  0  0  0  0
   -0.9937   -2.6713    0.0641 H   0  0  0  0  0  0
   -0.6160   -2.8045   -1.6493 H   0  0  0  0  0  0
    1.7668   -3.3642   -1.0798 H   0  0  0  0  0  0
    1.3571   -3.2841    0.6454 H   0  0  0  0  0  0
    0.6040   -4.5054   -0.3823 H   0  0  0  0  0  0
    0.8626   -0.4509    2.5802 H   0  0  0  0  0  0
   -0.4594    0.3241    1.7119 H   0  0  0  0  0  0
   -0.3892   -1.4502    1.8806 H   0  0  0  0  0  0
    2.0926    0.6520   -0.7729 H   0  0  0  0  0  0
    1.3137    1.4503    0.5895 H   0  0  0  0  0  0
    2.9686    0.3151    2.1492 H   0  0  0  0  0  0
    3.6984   -0.5331    0.7931 H   0  0  0  0  0  0
    3.9565    1.9544   -1.5357 H   0  0  0  0  0  0
    5.6626    2.1181   -1.0999 H   0  0  0  0  0  0
    4.9201    0.5095   -1.1094 H   0  0  0  0  0  0
    1.0526   -0.6966    0.4955 N   0  3  2  0  0  0
    1.7041   -1.4739    0.6550 H   0  0  0  0  0  0
  1  2  1  0  0  0
  1 14  1  0  0  0
  1 15  1  0  0  0
  1 16  1  0  0  0
  2  3  1  0  0  0
  2 17  1  0  0  0
  2 18  1  0  0  0
  3  4  1  0  0  0
  3 19  1  0  0  0
  3 20  1  0  0  0
  4  5  1  0  0  0
  4 21  1  0  0  0
  4 22  1  0  0  0
  5  6  1  0  0  0
  5 23  1  0  0  0
  5 24  1  0  0  0
  6  7  1  0  0  0
  6 25  1  0  0  0
  6 41  1  0  0  0
  7  8  1  0  0  0
  7 26  1  0  0  0
  7 27  1  0  0  0
  8 28  1  0  0  0
  8 29  1  0  0  0
  8 30  1  0  0  0
  9 31  1  0  0  0
  9 32  1  0  0  0
  9 33  1  0  0  0
  9 41  1  0  0  0
 10 11  1  0  0  0
 10 34  1  0  0  0
 10 35  1  0  0  0
 10 41  1  0  0  0
 11 12  1  0  0  0
 11 36  1  0  0  0
 11 37  1  0  0  0
 12 13  1  0  0  0
 13 38  1  0  0  0
 13 39  1  0  0  0
 13 40  1  0  0  0
 41 42  1  0  0  0
M  CHG  1  41   1
M  END
> <energy>
33.0359

> <chiral flag>
0

> <version>
0

> <i_ionizer_Ion_state_n>
1

> <i_ionizer_Tot_Q>
1

> <s_ionizer_Ion_centers>
41

> <s_ionizer_Ion_types>
N5

> <s_ionizer_Ion_ctrs_in>
9

> <r_ionizer_Ionization_penalty>
0.00148639

> <r_ionizer_Ionization_penalty_charging>
0.00148639

> <r_ionizer_Ionization_penalty_neutral>
0

$$$$
ZINC001258444638
                    3D
 Structure written by MMmdl.
 43 44  0  0  1  0            999 V2000
   -2.1387    2.9235    2.6816 C   0  0  0  0  0  0
   -1.4109    4.0959    2.0442 C   0  0  0  0  0  0
   -0.7396    3.7611    0.7102 C   0  0  0  0  0  0
    0.3957    2.7458    0.8487 C   0  0  0  0  0  0
    1.2247    2.6457   -0.4400 C   0  0  0  0  0  0
    2.4619    1.7422   -0.2453 C   0  0  2  0  0  0
    3.5672    2.0123   -1.2918 C   0  0  0  0  0  0
    3.1148    2.1535   -2.7404 C   0  0  0  0  0  0
    2.4874   -0.3455    1.1207 C   0  0  0  0  0  0
    2.9441   -1.8293    0.9271 C   0  0  0  0  0  0
    2.1702   -2.6561   -0.1351 C   0  0  0  0  0  0
    1.2243   -1.7555   -0.8397 C   0  0  2  0  0  0
    1.0938   -1.1247   -2.1902 C   0  0  0  0  0  0
    2.0778   -0.5457   -1.2528 C   0  0  1  0  0  0
   -1.4601    2.0932    2.8997 H   0  0  0  0  0  0
   -2.5913    3.2395    3.6275 H   0  0  0  0  0  0
   -2.9360    2.5588    2.0248 H   0  0  0  0  0  0
   -2.1255    4.9099    1.8802 H   0  0  0  0  0  0
   -0.6575    4.4780    2.7433 H   0  0  0  0  0  0
   -1.4834    3.3857   -0.0012 H   0  0  0  0  0  0
   -0.3435    4.6917    0.2895 H   0  0  0  0  0  0
   -0.0097    1.7633    1.1102 H   0  0  0  0  0  0
    1.0498    3.0550    1.6749 H   0  0  0  0  0  0
    1.5565    3.6544   -0.7152 H   0  0  0  0  0  0
    0.5914    2.2851   -1.2619 H   0  0  0  0  0  0
    2.9074    2.0541    0.7107 H   0  0  0  0  0  0
    4.3410    1.2385   -1.2173 H   0  0  0  0  0  0
    4.0722    2.9473   -1.0119 H   0  0  0  0  0  0
    2.4821    3.0377   -2.8768 H   0  0  0  0  0  0
    2.5680    1.2792   -3.0989 H   0  0  0  0  0  0
    3.9907    2.2829   -3.3853 H   0  0  0  0  0  0
    1.6525   -0.3288    1.8304 H   0  0  0  0  0  0
    3.3143    0.1888    1.6061 H   0  0  0  0  0  0
    2.9081   -2.3460    1.8923 H   0  0  0  0  0  0
    4.0031   -1.8168    0.6409 H   0  0  0  0  0  0
    2.8791   -3.1051   -0.8386 H   0  0  0  0  0  0
    1.6327   -3.4847    0.3422 H   0  0  0  0  0  0
    0.3442   -1.6022   -0.2200 H   0  0  0  0  0  0
    1.4506   -1.6998   -3.0379 H   0  0  0  0  0  0
    0.2097   -0.5328   -2.4110 H   0  0  0  0  0  0
    3.0977   -0.7237   -1.6077 H   0  0  0  0  0  0
    1.9009    0.3283   -0.0671 N   0  3  2  0  0  0
    0.8913    0.4251    0.0929 H   0  0  0  0  0  0
  1  2  1  0  0  0
  1 15  1  0  0  0
  1 16  1  0  0  0
  1 17  1  0  0  0
  2  3  1  0  0  0
  2 18  1  0  0  0
  2 19  1  0  0  0
  3  4  1  0  0  0
  3 20  1  0  0  0
  3 21  1  0  0  0
  4  5  1  0  0  0
  4 22  1  0  0  0
  4 23  1  0  0  0
  5  6  1  0  0  0
  5 24  1  0  0  0
  5 25  1  0  0  0
  6  7  1  0  0  0
  6 26  1  0  0  0
  6 42  1  0  0  0
  7  8  1  0  0  0
  7 27  1  0  0  0
  7 28  1  0  0  0
  8 29  1  0  0  0
  8 30  1  0  0  0
  8 31  1  0  0  0
  9 10  1  0  0  0
  9 32  1  0  0  0
  9 33  1  0  0  0
  9 42  1  0  0  0
 10 11  1  0  0  0
 10 34  1  0  0  0
 10 35  1  0  0  0
 11 12  1  0  0  0
 11 36  1  0  0  0
 11 37  1  0  0  0
 12 13  1  0  0  0
 12 14  1  0  0  0
 12 38  1  0  0  0
 13 14  1  0  0  0
 13 39  1  0  0  0
 13 40  1  0  0  0
 14 41  1  0  0  0
 14 42  1  0  0  0
 42 43  1  0  0  0
M  CHG  1  42   1
M  END
> <energy>
41.6473

> <chiral flag>
0

> <version>
0

> <i_ionizer_Ion_state_n>
1

> <i_ionizer_Tot_Q>
1

> <s_ionizer_Ion_centers>
42

> <s_ionizer_Ion_types>
N5

> <s_ionizer_Ion_ctrs_in>
9

> <r_ionizer_Ionization_penalty>
0.00148639

> <r_ionizer_Ionization_penalty_charging>
0.00148639

> <r_ionizer_Ionization_penalty_neutral>
0

$$$$
ZINC001258444639
                    3D
 Structure written by MMmdl.
 43 44  0  0  1  0            999 V2000
    0.8144   -0.0525   -3.2674 C   0  0  0  0  0  0
   -0.6739    0.0460   -3.5781 C   0  0  0  0  0  0
   -1.3515    1.2055   -2.8468 C   0  0  0  0  0  0
   -1.5782    0.9091   -1.3611 C   0  0  0  0  0  0
   -1.7711    2.1838   -0.5271 C   0  0  0  0  0  0
   -0.5741    2.5424    0.4082 C   0  0  2  0  0  0
    0.6442    2.9640   -0.4585 C   0  0  0  0  0  0
    1.5447    4.0239    0.1698 C   0  0  0  0  0  0
    0.9091    1.5845    2.1902 C   0  0  0  0  0  0
    1.1182    0.4383    3.2287 C   0  0  0  0  0  0
   -0.1914   -0.0642    3.8932 C   0  0  0  0  0  0
   -1.1482   -0.2847    2.7726 C   0  0  1  0  0  0
   -2.5044    0.1553    2.3102 C   0  0  0  0  0  0
   -1.4108    1.1359    2.2475 C   0  0  2  0  0  0
    1.2772   -0.8312   -3.8823 H   0  0  0  0  0  0
    0.9945   -0.3081   -2.2189 H   0  0  0  0  0  0
    1.3254    0.8929   -3.4777 H   0  0  0  0  0  0
   -1.1665   -0.8998   -3.3256 H   0  0  0  0  0  0
   -0.7934    0.1949   -4.6580 H   0  0  0  0  0  0
   -2.3236    1.3973   -3.3137 H   0  0  0  0  0  0
   -0.7600    2.1149   -2.9894 H   0  0  0  0  0  0
   -0.7671    0.2958   -0.9566 H   0  0  0  0  0  0
   -2.4852    0.2934   -1.2792 H   0  0  0  0  0  0
   -2.6730    2.0627    0.0822 H   0  0  0  0  0  0
   -1.9931    3.0397   -1.1773 H   0  0  0  0  0  0
   -0.8852    3.4213    0.9921 H   0  0  0  0  0  0
    0.2902    3.3852   -1.4053 H   0  0  0  0  0  0
    1.2386    2.0846   -0.7298 H   0  0  0  0  0  0
    2.3950    4.2251   -0.4914 H   0  0  0  0  0  0
    1.9470    3.7324    1.1406 H   0  0  0  0  0  0
    0.9940    4.9591    0.3086 H   0  0  0  0  0  0
    0.8470    2.5298    2.7422 H   0  0  0  0  0  0
    1.8098    1.6088    1.5668 H   0  0  0  0  0  0
    1.5828   -0.4057    2.7029 H   0  0  0  0  0  0
    1.8262    0.7577    4.0034 H   0  0  0  0  0  0
    0.0064   -1.0011    4.4274 H   0  0  0  0  0  0
   -0.5638    0.6652    4.6215 H   0  0  0  0  0  0
   -0.7193   -1.0271    2.0969 H   0  0  0  0  0  0
   -3.2817    0.3030    3.0492 H   0  0  0  0  0  0
   -2.8793   -0.2574    1.3757 H   0  0  0  0  0  0
   -1.5945    1.9549    2.9509 H   0  0  0  0  0  0
   -0.2952    1.3665    1.3380 N   0  3  1  0  0  0
   -0.1497    0.5299    0.7608 H   0  0  0  0  0  0
  1  2  1  0  0  0
  1 15  1  0  0  0
  1 16  1  0  0  0
  1 17  1  0  0  0
  2  3  1  0  0  0
  2 18  1  0  0  0
  2 19  1  0  0  0
  3  4  1  0  0  0
  3 20  1  0  0  0
  3 21  1  0  0  0
  4  5  1  0  0  0
  4 22  1  0  0  0
  4 23  1  0  0  0
  5  6  1  0  0  0
  5 24  1  0  0  0
  5 25  1  0  0  0
  6  7  1  0  0  0
  6 26  1  0  0  0
  6 42  1  0  0  0
  7  8  1  0  0  0
  7 27  1  0  0  0
  7 28  1  0  0  0
  8 29  1  0  0  0
  8 30  1  0  0  0
  8 31  1  0  0  0
  9 10  1  0  0  0
  9 32  1  0  0  0
  9 33  1  0  0  0
  9 42  1  0  0  0
 10 11  1  0  0  0
 10 34  1  0  0  0
 10 35  1  0  0  0
 11 12  1  0  0  0
 11 36  1  0  0  0
 11 37  1  0  0  0
 12 13  1  0  0  0
 12 14  1  0  0  0
 12 38  1  0  0  0
 13 14  1  0  0  0
 13 39  1  0  0  0
 13 40  1  0  0  0
 14 41  1  0  0  0
 14 42  1  0  0  0
 42 43  1  0  0  0
M  CHG  1  42   1
M  END
> <energy>
37.6013

> <chiral flag>
0

> <version>
0

> <i_ionizer_Ion_state_n>
1

> <i_ionizer_Tot_Q>
1

> <s_ionizer_Ion_centers>
42

> <s_ionizer_Ion_types>
N5

> <s_ionizer_Ion_ctrs_in>
9

> <r_ionizer_Ionization_penalty>
0.00148639

> <r_ionizer_Ionization_penalty_charging>
0.00148639

> <r_ionizer_Ionization_penalty_neutral>
0

$$$$
ZINC001258444640
                    3D
 Structure written by MMmdl.
 43 44  0  0  1  0            999 V2000
   -3.9432    0.3999    0.0405 C   0  0  0  0  0  0
   -3.6240   -1.0699    0.2645 C   0  0  0  0  0  0
   -2.8617   -1.7175   -0.8936 C   0  0  0  0  0  0
   -1.4462   -1.1829   -1.1504 C   0  0  0  0  0  0
   -0.4553   -1.5262   -0.0271 C   0  0  0  0  0  0
    0.9795   -1.0013   -0.3131 C   0  0  2  0  0  0
    2.0328   -1.6831    0.5920 C   0  0  0  0  0  0
    2.3094   -3.1299    0.1856 C   0  0  0  0  0  0
    2.1958    1.0522   -0.9107 C   0  0  0  0  0  0
    2.0666    2.5739   -1.0173 C   0  0  0  0  0  0
    2.0538    3.2162    0.3671 C   0  0  0  0  0  0
    1.1721    2.5048    1.3451 C   0  0  1  0  0  0
   -0.2778    2.2231    1.0737 C   0  0  0  0  0  0
    0.7298    1.0911    1.0538 C   0  0  1  0  0  0
   -3.0462    0.9951   -0.1494 H   0  0  0  0  0  0
   -4.6223    0.5253   -0.8086 H   0  0  0  0  0  0
   -4.4334    0.8198    0.9248 H   0  0  0  0  0  0
   -4.5727   -1.6048    0.3911 H   0  0  0  0  0  0
   -3.0786   -1.1905    1.2051 H   0  0  0  0  0  0
   -3.4484   -1.5971   -1.8125 H   0  0  0  0  0  0
   -2.8004   -2.7968   -0.7110 H   0  0  0  0  0  0
   -1.0797   -1.6393   -2.0805 H   0  0  0  0  0  0
   -1.4661   -0.1016   -1.3287 H   0  0  0  0  0  0
   -0.4377   -2.6158    0.0743 H   0  0  0  0  0  0
   -0.8205   -1.1398    0.9283 H   0  0  0  0  0  0
    1.2033   -1.2885   -1.3488 H   0  0  0  0  0  0
    2.9873   -1.1509    0.5403 H   0  0  0  0  0  0
    1.7202   -1.6607    1.6437 H   0  0  0  0  0  0
    2.6158   -3.2003   -0.8650 H   0  0  0  0  0  0
    1.4367   -3.7721    0.3291 H   0  0  0  0  0  0
    3.1208   -3.5391    0.7947 H   0  0  0  0  0  0
    2.2956    0.6463   -1.9248 H   0  0  0  0  0  0
    3.1158    0.8128   -0.3655 H   0  0  0  0  0  0
    2.9057    2.9792   -1.5988 H   0  0  0  0  0  0
    1.1493    2.8286   -1.5601 H   0  0  0  0  0  0
    3.0794    3.1992    0.7635 H   0  0  0  0  0  0
    1.7587    4.2699    0.2911 H   0  0  0  0  0  0
    1.4243    2.7674    2.3655 H   0  0  0  0  0  0
   -0.7058    2.5393    0.1318 H   0  0  0  0  0  0
   -0.9692    2.2600    1.9084 H   0  0  0  0  0  0
    0.7271    0.4250    1.9113 H   0  0  0  0  0  0
    0.9476    0.5103   -0.3221 N   0  3  2  0  0  0
    0.1613    0.8026   -0.9142 H   0  0  0  0  0  0
  1  2  1  0  0  0
  1 15  1  0  0  0
  1 16  1  0  0  0
  1 17  1  0  0  0
  2  3  1  0  0  0
  2 18  1  0  0  0
  2 19  1  0  0  0
  3  4  1  0  0  0
  3 20  1  0  0  0
  3 21  1  0  0  0
  4  5  1  0  0  0
  4 22  1  0  0  0
  4 23  1  0  0  0
  5  6  1  0  0  0
  5 24  1  0  0  0
  5 25  1  0  0  0
  6  7  1  0  0  0
  6 26  1  0  0  0
  6 42  1  0  0  0
  7  8  1  0  0  0
  7 27  1  0  0  0
  7 28  1  0  0  0
  8 29  1  0  0  0
  8 30  1  0  0  0
  8 31  1  0  0  0
  9 10  1  0  0  0
  9 32  1  0  0  0
  9 33  1  0  0  0
  9 42  1  0  0  0
 10 11  1  0  0  0
 10 34  1  0  0  0
 10 35  1  0  0  0
 11 12  1  0  0  0
 11 36  1  0  0  0
 11 37  1  0  0  0
 12 13  1  0  0  0
 12 14  1  0  0  0
 12 38  1  0  0  0
 13 14  1  0  0  0
 13 39  1  0  0  0
 13 40  1  0  0  0
 14 41  1  0  0  0
 14 42  1  0  0  0
 42 43  1  0  0  0
M  CHG  1  42   1
M  END
> <energy>
5.46144

> <chiral flag>
0

> <version>
0

> <i_ionizer_Ion_state_n>
1

> <i_ionizer_Tot_Q>
1

> <s_ionizer_Ion_centers>
42

> <s_ionizer_Ion_types>
N5

> <s_ionizer_Ion_ctrs_in>
9

> <r_ionizer_Ionization_penalty>
0.00148639

> <r_ionizer_Ionization_penalty_charging>
0.00148639

> <r_ionizer_Ionization_penalty_neutral>
0

$$$$
ZINC001258444641
                    3D
 Structure written by MMmdl.
 43 44  0  0  1  0            999 V2000
   -5.2647    0.7678    0.2279 C   0  0  0  0  0  0
   -3.8632    0.8517    0.8150 C   0  0  0  0  0  0
   -3.0558   -0.4177    0.5154 C   0  0  0  0  0  0
   -1.5981   -0.3266    0.9948 C   0  0  0  0  0  0
   -0.7121    0.5640    0.1074 C   0  0  0  0  0  0
    0.2320   -0.1151   -0.9254 C   0  0  2  0  0  0
   -0.3019   -1.4357   -1.5216 C   0  0  0  0  0  0
    0.5622   -1.9725   -2.6622 C   0  0  0  0  0  0
    1.9412   -1.0934    0.6795 C   0  0  0  0  0  0
    2.5210   -0.2565    1.8196 C   0  0  0  0  0  0
    3.8065    0.4520    1.3946 C   0  0  0  0  0  0
    3.7099    1.1135    0.0519 C   0  0  2  0  0  0
    2.6245    2.0992   -0.2763 C   0  0  0  0  0  0
    2.6002    0.7218   -0.8892 C   0  0  2  0  0  0
   -5.8134   -0.0906    0.6272 H   0  0  0  0  0  0
   -5.8331    1.6732    0.4665 H   0  0  0  0  0  0
   -5.2207    0.6702   -0.8621 H   0  0  0  0  0  0
   -3.3672    1.7373    0.4049 H   0  0  0  0  0  0
   -3.9335    0.9991    1.8991 H   0  0  0  0  0  0
   -3.5414   -1.2580    1.0277 H   0  0  0  0  0  0
   -3.0920   -0.6406   -0.5567 H   0  0  0  0  0  0
   -1.1896   -1.3358    1.0837 H   0  0  0  0  0  0
   -1.5991    0.0805    2.0150 H   0  0  0  0  0  0
   -1.3426    1.2750   -0.4404 H   0  0  0  0  0  0
   -0.1111    1.1954    0.7709 H   0  0  0  0  0  0
    0.2636    0.5888   -1.7726 H   0  0  0  0  0  0
   -0.3780   -2.2157   -0.7550 H   0  0  0  0  0  0
   -1.3103   -1.2660   -1.9166 H   0  0  0  0  0  0
    0.6198   -1.2477   -3.4788 H   0  0  0  0  0  0
    1.5801   -2.2043   -2.3303 H   0  0  0  0  0  0
    0.1235   -2.8901   -3.0639 H   0  0  0  0  0  0
    1.0802   -1.6576    1.0404 H   0  0  0  0  0  0
    2.6855   -1.8353    0.3690 H   0  0  0  0  0  0
    1.7770    0.4782    2.1570 H   0  0  0  0  0  0
    2.7294   -0.8988    2.6835 H   0  0  0  0  0  0
    4.0890    1.1921    2.1520 H   0  0  0  0  0  0
    4.6169   -0.2854    1.3524 H   0  0  0  0  0  0
    4.6899    1.3089   -0.3671 H   0  0  0  0  0  0
    1.9127    2.3567    0.4969 H   0  0  0  0  0  0
    2.8751    2.9294   -0.9306 H   0  0  0  0  0  0
    2.8762    0.6509   -1.9422 H   0  0  0  0  0  0
    1.6905   -0.4350   -0.6489 N   0  3  2  0  0  0
    1.9494   -1.1373   -1.3518 H   0  0  0  0  0  0
  1  2  1  0  0  0
  1 15  1  0  0  0
  1 16  1  0  0  0
  1 17  1  0  0  0
  2  3  1  0  0  0
  2 18  1  0  0  0
  2 19  1  0  0  0
  3  4  1  0  0  0
  3 20  1  0  0  0
  3 21  1  0  0  0
  4  5  1  0  0  0
  4 22  1  0  0  0
  4 23  1  0  0  0
  5  6  1  0  0  0
  5 24  1  0  0  0
  5 25  1  0  0  0
  6  7  1  0  0  0
  6 26  1  0  0  0
  6 42  1  0  0  0
  7  8  1  0  0  0
  7 27  1  0  0  0
  7 28  1  0  0  0
  8 29  1  0  0  0
  8 30  1  0  0  0
  8 31  1  0  0  0
  9 10  1  0  0  0
  9 32  1  0  0  0
  9 33  1  0  0  0
  9 42  1  0  0  0
 10 11  1  0  0  0
 10 34  1  0  0  0
 10 35  1  0  0  0
 11 12  1  0  0  0
 11 36  1  0  0  0
 11 37  1  0  0  0
 12 13  1  0  0  0
 12 14  1  0  0  0
 12 38  1  0  0  0
 13 14  1  0  0  0
 13 39  1  0  0  0
 13 40  1  0  0  0
 14 41  1  0  0  0
 14 42  1  0  0  0
 42 43  1  0  0  0
M  CHG  1  42   1
M  END
> <energy>
16.8834

> <chiral flag>
0

> <version>
0

> <i_ionizer_Ion_state_n>
1

> <i_ionizer_Tot_Q>
1

> <s_ionizer_Ion_centers>
42

> <s_ionizer_Ion_types>
N5

> <s_ionizer_Ion_ctrs_in>
9

> <r_ionizer_Ionization_penalty>
0.00148639

> <r_ionizer_Ionization_penalty_charging>
0.00148639

> <r_ionizer_Ionization_penalty_neutral>
0

$$$$
ZINC001258444882
                    3D
 Structure written by MMmdl.
 48 47  0  0  1  0            999 V2000
   -5.1143    1.0015    0.8377 C   0  0  0  0  0  0
   -4.3807   -0.2178    0.2970 C   0  0  0  0  0  0
   -2.8878   -0.1694    0.6261 C   0  0  0  0  0  0
   -2.1721   -1.4467    0.1692 C   0  0  0  0  0  0
   -0.6618   -1.4111    0.4505 C   0  0  0  0  0  0
    0.1608   -0.5154   -0.5069 C   0  0  2  0  0  0
    0.1762   -0.9985   -1.9795 C   0  0  0  0  0  0
    0.7251   -2.3919   -2.2437 C   0  0  0  0  0  0
    1.6573    1.1077    0.5942 C   0  0  0  0  0  0
    1.5368    2.2966   -0.3813 C   0  0  0  0  0  0
    1.5659    3.5176    0.3652 O   0  0  0  0  0  0
    1.4356    4.6506   -0.4832 C   0  0  0  0  0  0
    2.3188   -1.2910    0.5597 C   0  0  0  0  0  0
    2.3491   -1.3219    2.0955 C   0  0  0  0  0  0
    3.7549   -1.2246    0.0186 C   0  0  0  0  0  0
   -5.0635    1.0392    1.9319 H   0  0  0  0  0  0
   -4.6864    1.9295    0.4441 H   0  0  0  0  0  0
   -6.1697    0.9638    0.5485 H   0  0  0  0  0  0
   -4.8363   -1.1226    0.7147 H   0  0  0  0  0  0
   -4.5125   -0.2575   -0.7903 H   0  0  0  0  0  0
   -2.7515   -0.0411    1.7076 H   0  0  0  0  0  0
   -2.4484    0.7077    0.1395 H   0  0  0  0  0  0
   -2.6020   -2.2941    0.7218 H   0  0  0  0  0  0
   -2.3685   -1.6388   -0.8911 H   0  0  0  0  0  0
   -0.2903   -2.4426    0.4192 H   0  0  0  0  0  0
   -0.5338   -1.0604    1.4799 H   0  0  0  0  0  0
   -0.3859    0.4329   -0.5576 H   0  0  0  0  0  0
   -0.8442   -0.9514   -2.3776 H   0  0  0  0  0  0
    0.7532   -0.2810   -2.5800 H   0  0  0  0  0  0
    0.1923   -3.1546   -1.6705 H   0  0  0  0  0  0
    1.7891   -2.4557   -2.0149 H   0  0  0  0  0  0
    0.6145   -2.6413   -3.3027 H   0  0  0  0  0  0
    0.9210    1.2013    1.4023 H   0  0  0  0  0  0
    2.6332    1.2296    1.0802 H   0  0  0  0  0  0
    0.6033    2.2579   -0.9496 H   0  0  0  0  0  0
    2.3748    2.2741   -1.0877 H   0  0  0  0  0  0
    1.4602    5.5455    0.1443 H   0  0  0  0  0  0
    2.2646    4.6970   -1.1958 H   0  0  0  0  0  0
    0.4781    4.6276   -1.0168 H   0  0  0  0  0  0
    1.9304   -2.2610    0.2353 H   0  0  0  0  0  0
    2.8758   -2.2193    2.4431 H   0  0  0  0  0  0
    1.3453   -1.3567    2.5235 H   0  0  0  0  0  0
    2.8715   -0.4613    2.5244 H   0  0  0  0  0  0
    3.7634   -1.2639   -1.0763 H   0  0  0  0  0  0
    4.2704   -0.3071    0.3233 H   0  0  0  0  0  0
    4.3432   -2.0775    0.3787 H   0  0  0  0  0  0
    1.5962   -0.1713   -0.1764 N   0  3  1  0  0  0
    2.0888   -0.0241   -1.0652 H   0  0  0  0  0  0
  1  2  1  0  0  0
  1 16  1  0  0  0
  1 17  1  0  0  0
  1 18  1  0  0  0
  2  3  1  0  0  0
  2 19  1  0  0  0
  2 20  1  0  0  0
  3  4  1  0  0  0
  3 21  1  0  0  0
  3 22  1  0  0  0
  4  5  1  0  0  0
  4 23  1  0  0  0
  4 24  1  0  0  0
  5  6  1  0  0  0
  5 25  1  0  0  0
  5 26  1  0  0  0
  6  7  1  0  0  0
  6 27  1  0  0  0
  6 47  1  0  0  0
  7  8  1  0  0  0
  7 28  1  0  0  0
  7 29  1  0  0  0
  8 30  1  0  0  0
  8 31  1  0  0  0
  8 32  1  0  0  0
  9 10  1  0  0  0
  9 33  1  0  0  0
  9 34  1  0  0  0
  9 47  1  0  0  0
 10 11  1  0  0  0
 10 35  1  0  0  0
 10 36  1  0  0  0
 11 12  1  0  0  0
 12 37  1  0  0  0
 12 38  1  0  0  0
 12 39  1  0  0  0
 13 14  1  0  0  0
 13 15  1  0  0  0
 13 40  1  0  0  0
 13 47  1  0  0  0
 14 41  1  0  0  0
 14 42  1  0  0  0
 14 43  1  0  0  0
 15 44  1  0  0  0
 15 45  1  0  0  0
 15 46  1  0  0  0
 47 48  1  0  0  0
M  CHG  1  47   1
M  END
> <energy>
40.4621

> <chiral flag>
0

> <version>
0

> <i_ionizer_Ion_state_n>
1

> <i_ionizer_Tot_Q>
1

> <s_ionizer_Ion_centers>
47

> <s_ionizer_Ion_types>
N5

> <s_ionizer_Ion_ctrs_in>
9

> <r_ionizer_Ionization_penalty>
0.00148639

> <r_ionizer_Ionization_penalty_charging>
0.00148639

> <r_ionizer_Ionization_penalty_neutral>
0

$$$$
ZINC001258444883
                    3D
 Structure written by MMmdl.
 48 47  0  0  1  0            999 V2000
   -5.2479   -1.1509   -0.1278 C   0  0  0  0  0  0
   -4.0224   -0.3047    0.1854 C   0  0  0  0  0  0
   -3.2937    0.1379   -1.0869 C   0  0  0  0  0  0
   -2.0611    1.0000   -0.7957 C   0  0  0  0  0  0
   -0.8463    0.2047   -0.2799 C   0  0  0  0  0  0
    0.2841    1.1434    0.2139 C   0  0  1  0  0  0
    0.0236    1.5849    1.6758 C   0  0  0  0  0  0
    0.9058    2.7541    2.1011 C   0  0  0  0  0  0
    2.2851   -0.2924    0.9404 C   0  0  0  0  0  0
    1.6278   -1.6513    1.2259 C   0  0  0  0  0  0
    1.7624   -2.5190    0.1002 O   0  0  0  0  0  0
    1.1443   -3.7767    0.3254 C   0  0  0  0  0  0
    2.1939    0.7799   -1.3505 C   0  0  0  0  0  0
    2.5830   -0.5145   -2.0671 C   0  0  0  0  0  0
    3.4010    1.7222   -1.2733 C   0  0  0  0  0  0
   -5.7458   -1.4596    0.7990 H   0  0  0  0  0  0
   -4.9708   -2.0555   -0.6783 H   0  0  0  0  0  0
   -5.9703   -0.5890   -0.7287 H   0  0  0  0  0  0
   -3.3547   -0.8832    0.8301 H   0  0  0  0  0  0
   -4.3397    0.5753    0.7594 H   0  0  0  0  0  0
   -3.9912    0.7282   -1.6969 H   0  0  0  0  0  0
   -3.0102   -0.7379   -1.6850 H   0  0  0  0  0  0
   -1.7621    1.4888   -1.7318 H   0  0  0  0  0  0
   -2.3346    1.8006   -0.0970 H   0  0  0  0  0  0
   -0.4883   -0.4300   -1.1009 H   0  0  0  0  0  0
   -1.1455   -0.4712    0.5282 H   0  0  0  0  0  0
    0.2142    2.0707   -0.3709 H   0  0  0  0  0  0
    0.1490    0.7475    2.3733 H   0  0  0  0  0  0
   -1.0189    1.9053    1.7829 H   0  0  0  0  0  0
    0.7220    3.6269    1.4658 H   0  0  0  0  0  0
    0.6849    3.0384    3.1339 H   0  0  0  0  0  0
    1.9695    2.5110    2.0372 H   0  0  0  0  0  0
    3.3130   -0.4841    0.6129 H   0  0  0  0  0  0
    2.3973    0.2349    1.8943 H   0  0  0  0  0  0
    2.1476   -2.1101    2.0757 H   0  0  0  0  0  0
    0.5751   -1.5418    1.4983 H   0  0  0  0  0  0
    1.5899   -4.2778    1.1920 H   0  0  0  0  0  0
    1.3059   -4.3996   -0.5598 H   0  0  0  0  0  0
    0.0680   -3.6511    0.4730 H   0  0  0  0  0  0
    1.4552    1.2750   -1.9970 H   0  0  0  0  0  0
    2.9367   -0.2957   -3.0795 H   0  0  0  0  0  0
    1.7223   -1.1833   -2.1643 H   0  0  0  0  0  0
    3.3891   -1.0490   -1.5559 H   0  0  0  0  0  0
    4.2183    1.2893   -0.6885 H   0  0  0  0  0  0
    3.1267    2.6802   -0.8176 H   0  0  0  0  0  0
    3.7876    1.9376   -2.2753 H   0  0  0  0  0  0
    1.7620    0.8531    0.0804 N   0  3  1  0  0  0
    2.2269    1.6880    0.4560 H   0  0  0  0  0  0
  1  2  1  0  0  0
  1 16  1  0  0  0
  1 17  1  0  0  0
  1 18  1  0  0  0
  2  3  1  0  0  0
  2 19  1  0  0  0
  2 20  1  0  0  0
  3  4  1  0  0  0
  3 21  1  0  0  0
  3 22  1  0  0  0
  4  5  1  0  0  0
  4 23  1  0  0  0
  4 24  1  0  0  0
  5  6  1  0  0  0
  5 25  1  0  0  0
  5 26  1  0  0  0
  6  7  1  0  0  0
  6 27  1  0  0  0
  6 47  1  0  0  0
  7  8  1  0  0  0
  7 28  1  0  0  0
  7 29  1  0  0  0
  8 30  1  0  0  0
  8 31  1  0  0  0
  8 32  1  0  0  0
  9 10  1  0  0  0
  9 33  1  0  0  0
  9 34  1  0  0  0
  9 47  1  0  0  0
 10 11  1  0  0  0
 10 35  1  0  0  0
 10 36  1  0  0  0
 11 12  1  0  0  0
 12 37  1  0  0  0
 12 38  1  0  0  0
 12 39  1  0  0  0
 13 14  1  0  0  0
 13 15  1  0  0  0
 13 40  1  0  0  0
 13 47  1  0  0  0
 14 41  1  0  0  0
 14 42  1  0  0  0
 14 43  1  0  0  0
 15 44  1  0  0  0
 15 45  1  0  0  0
 15 46  1  0  0  0
 47 48  1  0  0  0
M  CHG  1  47   1
M  END
> <energy>
45.2898

> <chiral flag>
0

> <version>
0

> <i_ionizer_Ion_state_n>
1

> <i_ionizer_Tot_Q>
1

> <s_ionizer_Ion_centers>
47

> <s_ionizer_Ion_types>
N5

> <s_ionizer_Ion_ctrs_in>
9

> <r_ionizer_Ionization_penalty>
0.00148639

> <r_ionizer_Ionization_penalty_charging>
0.00148639

> <r_ionizer_Ionization_penalty_neutral>
0

$$$$
ZINC001258445269
                    3D
 Structure written by MMmdl.
 45 46  0  0  1  0            999 V2000
    3.6935    1.5171    0.0195 C   0  0  0  0  0  0
    4.1448    0.1069    0.3760 C   0  0  0  0  0  0
    3.0992   -0.7010    1.1572 C   0  0  0  0  0  0
    1.8485   -1.0181    0.3302 C   0  0  0  0  0  0
    0.7512   -1.6989    1.1673 C   0  0  0  0  0  0
   -0.6429   -1.7126    0.4748 C   0  0  2  0  0  0
   -0.6445   -2.5849   -0.8075 C   0  0  0  0  0  0
   -0.2921   -4.0494   -0.5655 C   0  0  0  0  0  0
   -1.4579    0.3739    1.5341 C   0  0  0  0  0  0
   -2.5455    1.4604    1.4353 C   0  0  0  0  0  0
   -2.4281    2.2187    0.1448 C   0  0  0  0  0  0
   -2.6487    3.5538    0.1423 N   0  0  0  0  0  0
   -2.5290    4.1813   -1.0481 C   0  0  0  0  0  0
   -2.2095    3.5391   -2.2363 C   0  0  0  0  0  0
   -2.0053    2.1619   -2.2104 C   0  0  0  0  0  0
   -2.1200    1.4833   -0.9977 C   0  0  0  0  0  0
   -1.9457   -0.0062   -0.8560 C   0  0  0  0  0  0
    2.8750    1.5106   -0.7053 H   0  0  0  0  0  0
    3.3619    2.0607    0.9094 H   0  0  0  0  0  0
    4.5220    2.0732   -0.4307 H   0  0  0  0  0  0
    4.4223   -0.4267   -0.5404 H   0  0  0  0  0  0
    5.0527    0.1827    0.9879 H   0  0  0  0  0  0
    2.8249   -0.1489    2.0645 H   0  0  0  0  0  0
    3.5604   -1.6415    1.4830 H   0  0  0  0  0  0
    2.1303   -1.6698   -0.5066 H   0  0  0  0  0  0
    1.4593   -0.0916   -0.1027 H   0  0  0  0  0  0
    1.0611   -2.7205    1.4148 H   0  0  0  0  0  0
    0.6644   -1.1871    2.1348 H   0  0  0  0  0  0
   -1.3568   -2.1962    1.1551 H   0  0  0  0  0  0
   -1.6499   -2.5810   -1.2464 H   0  0  0  0  0  0
    0.0378   -2.1727   -1.5591 H   0  0  0  0  0  0
   -0.8755   -4.4628    0.2655 H   0  0  0  0  0  0
    0.7715   -4.1791   -0.3476 H   0  0  0  0  0  0
   -0.5179   -4.6398   -1.4607 H   0  0  0  0  0  0
   -0.5483    0.8445    1.9269 H   0  0  0  0  0  0
   -1.7863   -0.3443    2.2953 H   0  0  0  0  0  0
   -2.4684    2.1417    2.2884 H   0  0  0  0  0  0
   -3.5387    0.9948    1.4714 H   0  0  0  0  0  0
   -2.6969    5.2531   -1.0205 H   0  0  0  0  0  0
   -2.1184    4.1001   -3.1587 H   0  0  0  0  0  0
   -1.7479    1.6354   -3.1245 H   0  0  0  0  0  0
   -2.9304   -0.4784   -0.7440 H   0  0  0  0  0  0
   -1.4972   -0.3702   -1.7861 H   0  0  0  0  0  0
   -0.9676   -0.2420    0.2704 N   0  3  2  0  0  0
   -0.0918    0.2296    0.0156 H   0  0  0  0  0  0
  1  2  1  0  0  0
  1 18  1  0  0  0
  1 19  1  0  0  0
  1 20  1  0  0  0
  2  3  1  0  0  0
  2 21  1  0  0  0
  2 22  1  0  0  0
  3  4  1  0  0  0
  3 23  1  0  0  0
  3 24  1  0  0  0
  4  5  1  0  0  0
  4 25  1  0  0  0
  4 26  1  0  0  0
  5  6  1  0  0  0
  5 27  1  0  0  0
  5 28  1  0  0  0
  6  7  1  0  0  0
  6 29  1  0  0  0
  6 44  1  0  0  0
  7  8  1  0  0  0
  7 30  1  0  0  0
  7 31  1  0  0  0
  8 32  1  0  0  0
  8 33  1  0  0  0
  8 34  1  0  0  0
  9 10  1  0  0  0
  9 35  1  0  0  0
  9 36  1  0  0  0
  9 44  1  0  0  0
 10 11  1  0  0  0
 10 37  1  0  0  0
 10 38  1  0  0  0
 11 12  2  0  0  0
 11 16  1  0  0  0
 12 13  1  0  0  0
 13 14  2  0  0  0
 13 39  1  0  0  0
 14 15  1  0  0  0
 14 40  1  0  0  0
 15 16  2  0  0  0
 15 41  1  0  0  0
 16 17  1  0  0  0
 17 42  1  0  0  0
 17 43  1  0  0  0
 17 44  1  0  0  0
 44 45  1  0  0  0
M  CHG  1  44   1
M  END
> <energy>
40.1943

> <chiral flag>
0

> <version>
0

> <i_ionizer_Ion_state_n>
1

> <i_ionizer_Tot_Q>
1

> <s_ionizer_Ion_centers>
44

> <s_ionizer_Ion_types>
N5

> <s_ionizer_Ion_ctrs_in>
9

> <r_ionizer_Ionization_penalty>
0.00889878

> <r_ionizer_Ionization_penalty_charging>
0.00148639

> <r_ionizer_Ionization_penalty_neutral>
0.00741239

$$$$
ZINC001258445270
                    3D
 Structure written by MMmdl.
 45 46  0  0  1  0            999 V2000
   -4.5217    0.1096   -1.3641 C   0  0  0  0  0  0
   -4.3647   -0.7001   -0.0850 C   0  0  0  0  0  0
   -3.1631   -0.2515    0.7484 C   0  0  0  0  0  0
   -1.8459   -0.8800    0.2841 C   0  0  0  0  0  0
   -0.6319   -0.3070    1.0273 C   0  0  0  0  0  0
   -0.1554    1.0574    0.4589 C   0  0  1  0  0  0
    0.0481    2.1164    1.5743 C   0  0  0  0  0  0
   -1.2493    2.5866    2.2217 C   0  0  0  0  0  0
    0.9450    0.4128   -1.6903 C   0  0  0  0  0  0
    1.3444   -1.0544   -1.8342 C   0  0  0  0  0  0
    2.7289   -1.2646   -1.2961 C   0  0  0  0  0  0
    3.4728   -2.2499   -1.8599 N   0  0  0  0  0  0
    4.7127   -2.4432   -1.3607 C   0  0  0  0  0  0
    5.2484   -1.7022   -0.3221 C   0  0  0  0  0  0
    4.4653   -0.7025    0.2457 C   0  0  0  0  0  0
    3.1773   -0.4666   -0.2464 C   0  0  0  0  0  0
    2.2965    0.5771    0.3895 C   0  0  0  0  0  0
   -3.6433    0.0206   -2.0097 H   0  0  0  0  0  0
   -5.3935   -0.2410   -1.9263 H   0  0  0  0  0  0
   -4.6754    1.1696   -1.1326 H   0  0  0  0  0  0
   -4.2922   -1.7660   -0.3269 H   0  0  0  0  0  0
   -5.2748   -0.5700    0.5117 H   0  0  0  0  0  0
   -3.0997    0.8409    0.7345 H   0  0  0  0  0  0
   -3.3351   -0.5458    1.7917 H   0  0  0  0  0  0
   -1.8905   -1.9581    0.4782 H   0  0  0  0  0  0
   -1.7186   -0.7674   -0.7968 H   0  0  0  0  0  0
   -0.8526   -0.2377    2.0988 H   0  0  0  0  0  0
    0.1730   -1.0489    0.9587 H   0  0  0  0  0  0
   -0.9338    1.4697   -0.1963 H   0  0  0  0  0  0
    0.5425    3.0006    1.1503 H   0  0  0  0  0  0
    0.7059    1.7285    2.3602 H   0  0  0  0  0  0
   -1.7795    1.7698    2.7154 H   0  0  0  0  0  0
   -1.0322    3.3465    2.9805 H   0  0  0  0  0  0
   -1.9175    3.0359    1.4806 H   0  0  0  0  0  0
   -0.0690    0.5596   -2.0851 H   0  0  0  0  0  0
    1.5916    1.0139   -2.3457 H   0  0  0  0  0  0
    1.3190   -1.3381   -2.8925 H   0  0  0  0  0  0
    0.6516   -1.7101   -1.2981 H   0  0  0  0  0  0
    5.2836   -3.2373   -1.8338 H   0  0  0  0  0  0
    6.2494   -1.9010    0.0404 H   0  0  0  0  0  0
    4.8585   -0.1118    1.0691 H   0  0  0  0  0  0
    2.0568    0.1996    1.3898 H   0  0  0  0  0  0
    2.8889    1.4882    0.5311 H   0  0  0  0  0  0
    1.1114    1.1027   -0.3671 N   0  3  2  0  0  0
    1.3008    2.0916   -0.5680 H   0  0  0  0  0  0
  1  2  1  0  0  0
  1 18  1  0  0  0
  1 19  1  0  0  0
  1 20  1  0  0  0
  2  3  1  0  0  0
  2 21  1  0  0  0
  2 22  1  0  0  0
  3  4  1  0  0  0
  3 23  1  0  0  0
  3 24  1  0  0  0
  4  5  1  0  0  0
  4 25  1  0  0  0
  4 26  1  0  0  0
  5  6  1  0  0  0
  5 27  1  0  0  0
  5 28  1  0  0  0
  6  7  1  0  0  0
  6 29  1  0  0  0
  6 44  1  0  0  0
  7  8  1  0  0  0
  7 30  1  0  0  0
  7 31  1  0  0  0
  8 32  1  0  0  0
  8 33  1  0  0  0
  8 34  1  0  0  0
  9 10  1  0  0  0
  9 35  1  0  0  0
  9 36  1  0  0  0
  9 44  1  0  0  0
 10 11  1  0  0  0
 10 37  1  0  0  0
 10 38  1  0  0  0
 11 12  2  0  0  0
 11 16  1  0  0  0
 12 13  1  0  0  0
 13 14  2  0  0  0
 13 39  1  0  0  0
 14 15  1  0  0  0
 14 40  1  0  0  0
 15 16  2  0  0  0
 15 41  1  0  0  0
 16 17  1  0  0  0
 17 42  1  0  0  0
 17 43  1  0  0  0
 17 44  1  0  0  0
 44 45  1  0  0  0
M  CHG  1  44   1
M  END
> <energy>
44.6643

> <chiral flag>
0

> <version>
0

> <i_ionizer_Ion_state_n>
1

> <i_ionizer_Tot_Q>
1

> <s_ionizer_Ion_centers>
44

> <s_ionizer_Ion_types>
N5

> <s_ionizer_Ion_ctrs_in>
9

> <r_ionizer_Ionization_penalty>
0.00889878

> <r_ionizer_Ionization_penalty_charging>
0.00148639

> <r_ionizer_Ionization_penalty_neutral>
0.00741239

$$$$
ZINC001258445435
                    3D
 Structure written by MMmdl.
 49 49  0  0  1  0            999 V2000
   -2.8027   -0.6045   -3.2948 C   0  0  0  0  0  0
   -3.7935    0.3074   -2.5800 C   0  0  0  0  0  0
   -3.1494    1.2387   -1.5432 C   0  0  0  0  0  0
   -2.5569    0.4874   -0.3465 C   0  0  0  0  0  0
   -1.9936    1.3783    0.7838 C   0  0  0  0  0  0
   -0.4515    1.6211    0.7795 C   0  0  2  0  0  0
   -0.1109    2.7279   -0.2657 C   0  0  0  0  0  0
   -0.3421    4.1406    0.2610 C   0  0  0  0  0  0
   -0.0725   -0.7412    1.4699 C   0  0  0  0  0  0
    0.6702   -2.0387    1.1177 C   0  0  0  0  0  0
    2.1961   -1.8816    1.1580 C   0  0  1  0  0  0
    2.6167   -1.7384    2.5211 O   0  0  0  0  0  0
    2.8662   -3.1424    0.5672 C   0  0  0  0  0  0
    4.3930   -3.0852    0.5226 C   0  0  0  0  0  0
    2.5997   -0.6153    0.3995 C   0  0  0  0  0  0
    1.7797    0.6038    0.8266 C   0  0  0  0  0  0
   -2.2504   -1.2407   -2.5950 H   0  0  0  0  0  0
   -2.0773   -0.0167   -3.8665 H   0  0  0  0  0  0
   -3.3286   -1.2693   -3.9887 H   0  0  0  0  0  0
   -4.5693   -0.3004   -2.1041 H   0  0  0  0  0  0
   -4.2981    0.9215   -3.3374 H   0  0  0  0  0  0
   -2.3917    1.8390   -2.0471 H   0  0  0  0  0  0
   -3.9208    1.9297   -1.1818 H   0  0  0  0  0  0
   -3.3607   -0.1167    0.0906 H   0  0  0  0  0  0
   -1.8042   -0.2181   -0.6973 H   0  0  0  0  0  0
   -2.5297    2.3325    0.8092 H   0  0  0  0  0  0
   -2.2436    0.8962    1.7408 H   0  0  0  0  0  0
   -0.1934    2.0191    1.7729 H   0  0  0  0  0  0
   -0.6974    2.5913   -1.1728 H   0  0  0  0  0  0
    0.9271    2.6921   -0.6104 H   0  0  0  0  0  0
   -1.3796    4.3170    0.5562 H   0  0  0  0  0  0
    0.2962    4.3457    1.1251 H   0  0  0  0  0  0
   -0.0833    4.8712   -0.5119 H   0  0  0  0  0  0
   -1.1375   -0.9724    1.3582 H   0  0  0  0  0  0
    0.0792   -0.4740    2.5258 H   0  0  0  0  0  0
    0.3604   -2.3510    0.1094 H   0  0  0  0  0  0
    0.3464   -2.8213    1.8165 H   0  0  0  0  0  0
    2.3778   -2.5473    3.0017 H   0  0  0  0  0  0
    2.4956   -3.3189   -0.4499 H   0  0  0  0  0  0
    2.5860   -4.0231    1.1613 H   0  0  0  0  0  0
    4.8187   -2.9318    1.5209 H   0  0  0  0  0  0
    4.7446   -2.2833   -0.1345 H   0  0  0  0  0  0
    4.7910   -4.0256    0.1251 H   0  0  0  0  0  0
    2.4648   -0.7737   -0.6803 H   0  0  0  0  0  0
    3.6579   -0.3848    0.5777 H   0  0  0  0  0  0
    2.1707    1.4400    0.2455 H   0  0  0  0  0  0
    1.9601    0.8442    1.8834 H   0  0  0  0  0  0
    0.3566    0.3515    0.5630 N   0  3  2  0  0  0
    0.2362    0.0484   -0.4106 H   0  0  0  0  0  0
  1  2  1  0  0  0
  1 17  1  0  0  0
  1 18  1  0  0  0
  1 19  1  0  0  0
  2  3  1  0  0  0
  2 20  1  0  0  0
  2 21  1  0  0  0
  3  4  1  0  0  0
  3 22  1  0  0  0
  3 23  1  0  0  0
  4  5  1  0  0  0
  4 24  1  0  0  0
  4 25  1  0  0  0
  5  6  1  0  0  0
  5 26  1  0  0  0
  5 27  1  0  0  0
  6  7  1  0  0  0
  6 28  1  0  0  0
  6 48  1  0  0  0
  7  8  1  0  0  0
  7 29  1  0  0  0
  7 30  1  0  0  0
  8 31  1  0  0  0
  8 32  1  0  0  0
  8 33  1  0  0  0
  9 10  1  0  0  0
  9 34  1  0  0  0
  9 35  1  0  0  0
  9 48  1  0  0  0
 10 11  1  0  0  0
 10 36  1  0  0  0
 10 37  1  0  0  0
 11 12  1  0  0  0
 11 13  1  0  0  0
 11 15  1  0  0  0
 12 38  1  0  0  0
 13 14  1  0  0  0
 13 39  1  0  0  0
 13 40  1  0  0  0
 14 41  1  0  0  0
 14 42  1  0  0  0
 14 43  1  0  0  0
 15 16  1  0  0  0
 15 44  1  0  0  0
 15 45  1  0  0  0
 16 46  1  0  0  0
 16 47  1  0  0  0
 16 48  1  0  0  0
 48 49  1  0  0  0
M  CHG  1  48   1
M  END
> <energy>
22.3223

> <chiral flag>
0

> <version>
0

> <i_ionizer_Ion_state_n>
1

> <i_ionizer_Tot_Q>
1

> <s_ionizer_Ion_centers>
48

> <s_ionizer_Ion_types>
N5

> <s_ionizer_Ion_ctrs_in>
9

> <r_ionizer_Ionization_penalty>
0.00148639

> <r_ionizer_Ionization_penalty_charging>
0.00148639

> <r_ionizer_Ionization_penalty_neutral>
0

$$$$
ZINC001258445436
                    3D
 Structure written by MMmdl.
 49 49  0  0  1  0            999 V2000
   -4.5693   -1.5454    1.0197 C   0  0  0  0  0  0
   -4.0722   -0.2560    0.3824 C   0  0  0  0  0  0
   -3.0903   -0.5495   -0.7521 C   0  0  0  0  0  0
   -2.5819    0.6962   -1.4814 C   0  0  0  0  0  0
   -1.7832    1.7296   -0.6731 C   0  0  0  0  0  0
   -0.3561    1.3897   -0.1455 C   0  0  1  0  0  0
   -0.3370    0.5562    1.1545 C   0  0  0  0  0  0
   -0.9288    1.2935    2.3534 C   0  0  0  0  0  0
    1.8294    1.5861   -1.3096 C   0  0  0  0  0  0
    2.8672    0.9372   -0.3900 C   0  0  0  0  0  0
    3.0205   -0.5606   -0.6905 C   0  0  1  0  0  0
    3.6167   -0.6548   -1.9975 O   0  0  0  0  0  0
    4.0031   -1.2554    0.2798 C   0  0  0  0  0  0
    3.5997   -1.2815    1.7484 C   0  0  0  0  0  0
    1.6542   -1.2617   -0.7360 C   0  0  0  0  0  0
    0.6156   -0.4855   -1.5532 C   0  0  0  0  0  0
   -5.2273   -1.3224    1.8654 H   0  0  0  0  0  0
   -3.7333   -2.1446    1.3931 H   0  0  0  0  0  0
   -5.1307   -2.1493    0.2998 H   0  0  0  0  0  0
   -3.5958    0.3539    1.1537 H   0  0  0  0  0  0
   -4.9293    0.3097   -0.0003 H   0  0  0  0  0  0
   -3.5932   -1.1858   -1.4937 H   0  0  0  0  0  0
   -2.2553   -1.1425   -0.3722 H   0  0  0  0  0  0
   -3.4556    1.2125   -1.9029 H   0  0  0  0  0  0
   -1.9936    0.3832   -2.3507 H   0  0  0  0  0  0
   -1.6625    2.5961   -1.3414 H   0  0  0  0  0  0
   -2.4048    2.1082    0.1448 H   0  0  0  0  0  0
    0.0252    2.3735    0.1644 H   0  0  0  0  0  0
   -0.8455   -0.4009    1.0319 H   0  0  0  0  0  0
    0.6956    0.3258    1.4318 H   0  0  0  0  0  0
   -0.8631    0.6732    3.2538 H   0  0  0  0  0  0
   -1.9777    1.5535    2.2053 H   0  0  0  0  0  0
   -0.3739    2.2165    2.5493 H   0  0  0  0  0  0
    1.7533    2.6578   -1.0911 H   0  0  0  0  0  0
    2.1909    1.5425   -2.3457 H   0  0  0  0  0  0
    3.8277    1.4456   -0.5436 H   0  0  0  0  0  0
    2.5827    1.1156    0.6504 H   0  0  0  0  0  0
    3.7398   -1.5959   -2.2056 H   0  0  0  0  0  0
    4.1648   -2.2902   -0.0531 H   0  0  0  0  0  0
    4.9880   -0.7766    0.1946 H   0  0  0  0  0  0
    4.3751   -1.7835    2.3384 H   0  0  0  0  0  0
    3.4826   -0.2746    2.1563 H   0  0  0  0  0  0
    2.6682   -1.8327    1.9052 H   0  0  0  0  0  0
    1.2628   -1.4223    0.2693 H   0  0  0  0  0  0
    1.7626   -2.2583   -1.1828 H   0  0  0  0  0  0
   -0.3509   -0.9858   -1.4629 H   0  0  0  0  0  0
    0.8752   -0.5811   -2.6161 H   0  0  0  0  0  0
    0.4798    0.9888   -1.3638 N   0  3  1  0  0  0
    0.0011    1.3620   -2.1920 H   0  0  0  0  0  0
  1  2  1  0  0  0
  1 17  1  0  0  0
  1 18  1  0  0  0
  1 19  1  0  0  0
  2  3  1  0  0  0
  2 20  1  0  0  0
  2 21  1  0  0  0
  3  4  1  0  0  0
  3 22  1  0  0  0
  3 23  1  0  0  0
  4  5  1  0  0  0
  4 24  1  0  0  0
  4 25  1  0  0  0
  5  6  1  0  0  0
  5 26  1  0  0  0
  5 27  1  0  0  0
  6  7  1  0  0  0
  6 28  1  0  0  0
  6 48  1  0  0  0
  7  8  1  0  0  0
  7 29  1  0  0  0
  7 30  1  0  0  0
  8 31  1  0  0  0
  8 32  1  0  0  0
  8 33  1  0  0  0
  9 10  1  0  0  0
  9 34  1  0  0  0
  9 35  1  0  0  0
  9 48  1  0  0  0
 10 11  1  0  0  0
 10 36  1  0  0  0
 10 37  1  0  0  0
 11 12  1  0  0  0
 11 13  1  0  0  0
 11 15  1  0  0  0
 12 38  1  0  0  0
 13 14  1  0  0  0
 13 39  1  0  0  0
 13 40  1  0  0  0
 14 41  1  0  0  0
 14 42  1  0  0  0
 14 43  1  0  0  0
 15 16  1  0  0  0
 15 44  1  0  0  0
 15 45  1  0  0  0
 16 46  1  0  0  0
 16 47  1  0  0  0
 16 48  1  0  0  0
 48 49  1  0  0  0
M  CHG  1  48   1
M  END
> <energy>
27.5545

> <chiral flag>
0

> <version>
0

> <i_ionizer_Ion_state_n>
1

> <i_ionizer_Tot_Q>
1

> <s_ionizer_Ion_centers>
48

> <s_ionizer_Ion_types>
N5

> <s_ionizer_Ion_ctrs_in>
9

> <r_ionizer_Ionization_penalty>
0.00148639

> <r_ionizer_Ionization_penalty_charging>
0.00148639

> <r_ionizer_Ionization_penalty_neutral>
0

$$$$
ZINC001258445500
                    3D
 Structure written by MMmdl.
 43 44  0  0  1  0            999 V2000
   -4.3960    0.1452   -0.9177 C   0  0  0  0  0  0
   -3.6808   -0.1603    0.3930 C   0  0  0  0  0  0
   -2.3342   -0.8481    0.1584 C   0  0  0  0  0  0
   -1.5236   -0.9832    1.4521 C   0  0  0  0  0  0
   -0.1236   -1.6181    1.3022 C   0  0  0  0  0  0
    0.8595   -0.9888    0.2737 C   0  0  1  0  0  0
    0.6714   -1.5484   -1.1631 C   0  0  0  0  0  0
    0.8770   -3.0583   -1.2517 C   0  0  0  0  0  0
    1.5210    1.0612    1.5304 C   0  0  0  0  0  0
    2.0280    2.3848    0.9338 C   0  0  2  0  0  0
    0.9782    2.6786   -0.1338 C   0  0  0  0  0  0
    1.1426    1.3102   -0.7862 C   0  0  1  0  0  0
    2.6506    1.2509   -1.0864 C   0  0  0  0  0  0
    3.2432    2.0742    0.0550 C   0  0  1  0  0  0
    3.7328    3.2361   -0.4542 F   0  0  0  0  0  0
   -5.3137    0.7079   -0.7285 H   0  0  0  0  0  0
   -3.7761    0.7555   -1.5823 H   0  0  0  0  0  0
   -4.6603   -0.7730   -1.4489 H   0  0  0  0  0  0
   -3.5359    0.7786    0.9418 H   0  0  0  0  0  0
   -4.3223   -0.8022    1.0098 H   0  0  0  0  0  0
   -2.4977   -1.8398   -0.2800 H   0  0  0  0  0  0
   -1.7760   -0.2439   -0.5618 H   0  0  0  0  0  0
   -1.4127    0.0031    1.9227 H   0  0  0  0  0  0
   -2.0958   -1.5898    2.1689 H   0  0  0  0  0  0
   -0.2402   -2.6932    1.1185 H   0  0  0  0  0  0
    0.3516   -1.5579    2.2903 H   0  0  0  0  0  0
    1.8704   -1.3116    0.5592 H   0  0  0  0  0  0
   -0.3002   -1.2951   -1.5933 H   0  0  0  0  0  0
    1.4148   -1.0975   -1.8304 H   0  0  0  0  0  0
   -0.0336   -3.5951   -0.9676 H   0  0  0  0  0  0
    1.6972   -3.3866   -0.6076 H   0  0  0  0  0  0
    1.1203   -3.3386   -2.2818 H   0  0  0  0  0  0
    0.8195    1.2353    2.3541 H   0  0  0  0  0  0
    2.3586    0.4448    1.8855 H   0  0  0  0  0  0
    2.1873    3.1880    1.6561 H   0  0  0  0  0  0
    1.2457    3.5135   -0.7916 H   0  0  0  0  0  0
   -0.0172    2.8496    0.2819 H   0  0  0  0  0  0
    0.4857    1.1534   -1.6447 H   0  0  0  0  0  0
    3.0394    0.2292   -1.0664 H   0  0  0  0  0  0
    2.8861    1.6903   -2.0625 H   0  0  0  0  0  0
    4.0576    1.5643    0.5772 H   0  0  0  0  0  0
    0.7261    0.5391    0.4123 N   0  3  1  0  0  0
   -0.2647    0.7401    0.5919 H   0  0  0  0  0  0
  1  2  1  0  0  0
  1 16  1  0  0  0
  1 17  1  0  0  0
  1 18  1  0  0  0
  2  3  1  0  0  0
  2 19  1  0  0  0
  2 20  1  0  0  0
  3  4  1  0  0  0
  3 21  1  0  0  0
  3 22  1  0  0  0
  4  5  1  0  0  0
  4 23  1  0  0  0
  4 24  1  0  0  0
  5  6  1  0  0  0
  5 25  1  0  0  0
  5 26  1  0  0  0
  6  7  1  0  0  0
  6 27  1  0  0  0
  6 42  1  0  0  0
  7  8  1  0  0  0
  7 28  1  0  0  0
  7 29  1  0  0  0
  8 30  1  0  0  0
  8 31  1  0  0  0
  8 32  1  0  0  0
  9 10  1  0  0  0
  9 33  1  0  0  0
  9 34  1  0  0  0
  9 42  1  0  0  0
 10 11  1  0  0  0
 10 14  1  0  0  0
 10 35  1  0  0  0
 11 12  1  0  0  0
 11 36  1  0  0  0
 11 37  1  0  0  0
 12 13  1  0  0  0
 12 38  1  0  0  0
 12 42  1  0  0  0
 13 14  1  0  0  0
 13 39  1  0  0  0
 13 40  1  0  0  0
 14 15  1  0  0  0
 14 41  1  0  0  0
 42 43  1  0  0  0
M  CHG  1  42   1
M  END
> <energy>
23.7751

> <chiral flag>
0

> <version>
0

> <i_ionizer_Ion_state_n>
1

> <i_ionizer_Tot_Q>
1

> <s_ionizer_Ion_centers>
42

> <s_ionizer_Ion_types>
N5

> <s_ionizer_Ion_ctrs_in>
9

> <r_ionizer_Ionization_penalty>
0.00148639

> <r_ionizer_Ionization_penalty_charging>
0.00148639

> <r_ionizer_Ionization_penalty_neutral>
0

$$$$
ZINC001258445501
                    3D
 Structure written by MMmdl.
 43 44  0  0  1  0            999 V2000
   -3.7956    1.2019   -0.1905 C   0  0  0  0  0  0
   -4.0128   -0.2319    0.2718 C   0  0  0  0  0  0
   -2.7645   -1.0970    0.0922 C   0  0  0  0  0  0
   -1.7086   -0.8567    1.1774 C   0  0  0  0  0  0
   -0.3909   -1.5976    0.8879 C   0  0  0  0  0  0
    0.4371   -1.0002   -0.2784 C   0  0  2  0  0  0
    1.5141   -2.0088   -0.7504 C   0  0  0  0  0  0
    0.9243   -3.1970   -1.5062 C   0  0  0  0  0  0
    0.4922    1.4547   -0.6270 C   0  0  0  0  0  0
    1.7304    2.3451   -0.5985 C   0  0  2  0  0  0
    2.8254    1.2980   -0.7690 C   0  0  0  0  0  0
    2.3634    0.5015    0.4440 C   0  0  1  0  0  0
    2.4410    1.5562    1.5616 C   0  0  0  0  0  0
    1.9686    2.8211    0.8405 C   0  0  1  0  0  0
    2.9797    3.7317    0.8409 F   0  0  0  0  0  0
   -4.7235    1.7730   -0.1011 H   0  0  0  0  0  0
   -3.4861    1.2241   -1.2401 H   0  0  0  0  0  0
   -3.0289    1.7081    0.4039 H   0  0  0  0  0  0
   -4.3410   -0.2462    1.3197 H   0  0  0  0  0  0
   -4.8279   -0.6660   -0.3220 H   0  0  0  0  0  0
   -2.3551   -0.9253   -0.9082 H   0  0  0  0  0  0
   -3.0597   -2.1530    0.1266 H   0  0  0  0  0  0
   -2.1023   -1.2287    2.1331 H   0  0  0  0  0  0
   -1.5230    0.2141    1.3165 H   0  0  0  0  0  0
    0.2176   -1.5853    1.8047 H   0  0  0  0  0  0
   -0.6252   -2.6512    0.6971 H   0  0  0  0  0  0
   -0.2360   -0.8521   -1.1317 H   0  0  0  0  0  0
    2.0905   -2.3916    0.0998 H   0  0  0  0  0  0
    2.2191   -1.5200   -1.4302 H   0  0  0  0  0  0
    0.3153   -3.8324   -0.8567 H   0  0  0  0  0  0
    0.3003   -2.8628   -2.3417 H   0  0  0  0  0  0
    1.7297   -3.8164   -1.9177 H   0  0  0  0  0  0
   -0.3861    1.9456   -0.1928 H   0  0  0  0  0  0
    0.2672    1.1703   -1.6626 H   0  0  0  0  0  0
    1.7377    3.1410   -1.3437 H   0  0  0  0  0  0
    3.8333    1.7111   -0.6620 H   0  0  0  0  0  0
    2.7546    0.7531   -1.7170 H   0  0  0  0  0  0
    2.9422   -0.3875    0.6927 H   0  0  0  0  0  0
    1.8023    1.3003    2.4131 H   0  0  0  0  0  0
    3.4685    1.6730    1.9228 H   0  0  0  0  0  0
    1.0886    3.2790    1.3055 H   0  0  0  0  0  0
    0.8926    0.3642    0.2614 N   0  3  2  0  0  0
    0.4418    0.4966    1.1743 H   0  0  0  0  0  0
  1  2  1  0  0  0
  1 16  1  0  0  0
  1 17  1  0  0  0
  1 18  1  0  0  0
  2  3  1  0  0  0
  2 19  1  0  0  0
  2 20  1  0  0  0
  3  4  1  0  0  0
  3 21  1  0  0  0
  3 22  1  0  0  0
  4  5  1  0  0  0
  4 23  1  0  0  0
  4 24  1  0  0  0
  5  6  1  0  0  0
  5 25  1  0  0  0
  5 26  1  0  0  0
  6  7  1  0  0  0
  6 27  1  0  0  0
  6 42  1  0  0  0
  7  8  1  0  0  0
  7 28  1  0  0  0
  7 29  1  0  0  0
  8 30  1  0  0  0
  8 31  1  0  0  0
  8 32  1  0  0  0
  9 10  1  0  0  0
  9 33  1  0  0  0
  9 34  1  0  0  0
  9 42  1  0  0  0
 10 11  1  0  0  0
 10 14  1  0  0  0
 10 35  1  0  0  0
 11 12  1  0  0  0
 11 36  1  0  0  0
 11 37  1  0  0  0
 12 13  1  0  0  0
 12 38  1  0  0  0
 12 42  1  0  0  0
 13 14  1  0  0  0
 13 39  1  0  0  0
 13 40  1  0  0  0
 14 15  1  0  0  0
 14 41  1  0  0  0
 42 43  1  0  0  0
M  CHG  1  42   1
M  END
> <energy>
23.5791

> <chiral flag>
0

> <version>
0

> <i_ionizer_Ion_state_n>
1

> <i_ionizer_Tot_Q>
1

> <s_ionizer_Ion_centers>
42

> <s_ionizer_Ion_types>
N5

> <s_ionizer_Ion_ctrs_in>
9

> <r_ionizer_Ionization_penalty>
0.00148639

> <r_ionizer_Ionization_penalty_charging>
0.00148639

> <r_ionizer_Ionization_penalty_neutral>
0

$$$$
ZINC001258445558
                    3D
 Structure written by MMmdl.
 47 47  0  0  1  0            999 V2000
   -3.5891    2.1201    0.8160 C   0  0  0  0  0  0
   -3.5878    0.7297    0.1997 C   0  0  0  0  0  0
   -3.1484   -0.3274    1.2116 C   0  0  0  0  0  0
   -3.0772   -1.7370    0.5995 C   0  0  0  0  0  0
   -1.6657   -2.3385    0.6767 C   0  0  0  0  0  0
   -0.6890   -1.6739   -0.3397 C   0  0  2  0  0  0
   -0.5511   -2.5842   -1.5823 C   0  0  0  0  0  0
    0.1642   -1.9462   -2.7646 C   0  0  0  0  0  0
    1.4857   -2.3888    0.5783 C   0  0  0  0  0  0
    1.1897   -0.0771   -0.1656 C   0  0  0  0  0  0
    2.1624    0.5732    0.8452 C   0  0  0  0  0  0
    2.7473    1.8949    0.4051 C   0  0  0  0  0  0
    4.1168    2.1542    0.5460 C   0  0  0  0  0  0
    4.6311    3.3951    0.1780 C   0  0  0  0  0  0
    3.7568    4.3454   -0.3147 C   0  0  0  0  0  0
    2.4301    4.1447   -0.4492 N   0  0  0  0  0  0
    1.9558    2.9336   -0.0775 C   0  0  0  0  0  0
   -3.8636    2.8671    0.0644 H   0  0  0  0  0  0
   -2.5996    2.3775    1.2057 H   0  0  0  0  0  0
   -4.3104    2.1840    1.6368 H   0  0  0  0  0  0
   -4.5915    0.4965   -0.1709 H   0  0  0  0  0  0
   -2.9153    0.7266   -0.6649 H   0  0  0  0  0  0
   -2.1852   -0.0422    1.6474 H   0  0  0  0  0  0
   -3.8664   -0.3419    2.0428 H   0  0  0  0  0  0
   -3.4281   -1.7378   -0.4395 H   0  0  0  0  0  0
   -3.7637   -2.3892    1.1533 H   0  0  0  0  0  0
   -1.3084   -2.2374    1.7105 H   0  0  0  0  0  0
   -1.7299   -3.4175    0.4903 H   0  0  0  0  0  0
   -1.1723   -0.7522   -0.6827 H   0  0  0  0  0  0
   -0.0566   -3.5306   -1.3256 H   0  0  0  0  0  0
   -1.5596   -2.8558   -1.9234 H   0  0  0  0  0  0
    0.0304   -2.5660   -3.6574 H   0  0  0  0  0  0
   -0.2378   -0.9514   -2.9812 H   0  0  0  0  0  0
    1.2392   -1.8628   -2.5910 H   0  0  0  0  0  0
    2.0240   -2.6402   -0.3386 H   0  0  0  0  0  0
    0.9828   -3.2881    0.9469 H   0  0  0  0  0  0
    2.2221   -2.1307    1.3445 H   0  0  0  0  0  0
    1.7107   -0.2888   -1.1057 H   0  0  0  0  0  0
    0.4100    0.6553   -0.4044 H   0  0  0  0  0  0
    2.9902   -0.1192    1.0372 H   0  0  0  0  0  0
    1.6482    0.7332    1.8039 H   0  0  0  0  0  0
    4.7825    1.4023    0.9592 H   0  0  0  0  0  0
    5.6868    3.6127    0.2795 H   0  0  0  0  0  0
    4.1052    5.3313   -0.6122 H   0  0  0  0  0  0
    0.8775    2.8377   -0.1602 H   0  0  0  0  0  0
    0.5251   -1.2665    0.4508 N   0  3  1  0  0  0
    0.2152   -1.0053    1.3942 H   0  0  0  0  0  0
  1  2  1  0  0  0
  1 18  1  0  0  0
  1 19  1  0  0  0
  1 20  1  0  0  0
  2  3  1  0  0  0
  2 21  1  0  0  0
  2 22  1  0  0  0
  3  4  1  0  0  0
  3 23  1  0  0  0
  3 24  1  0  0  0
  4  5  1  0  0  0
  4 25  1  0  0  0
  4 26  1  0  0  0
  5  6  1  0  0  0
  5 27  1  0  0  0
  5 28  1  0  0  0
  6  7  1  0  0  0
  6 29  1  0  0  0
  6 46  1  0  0  0
  7  8  1  0  0  0
  7 30  1  0  0  0
  7 31  1  0  0  0
  8 32  1  0  0  0
  8 33  1  0  0  0
  8 34  1  0  0  0
  9 35  1  0  0  0
  9 36  1  0  0  0
  9 37  1  0  0  0
  9 46  1  0  0  0
 10 11  1  0  0  0
 10 38  1  0  0  0
 10 39  1  0  0  0
 10 46  1  0  0  0
 11 12  1  0  0  0
 11 40  1  0  0  0
 11 41  1  0  0  0
 12 13  2  0  0  0
 12 17  1  0  0  0
 13 14  1  0  0  0
 13 42  1  0  0  0
 14 15  2  0  0  0
 14 43  1  0  0  0
 15 16  1  0  0  0
 15 44  1  0  0  0
 16 17  2  0  0  0
 17 45  1  0  0  0
 46 47  1  0  0  0
M  CHG  1  46   1
M  END
> <energy>
47.3421

> <chiral flag>
0

> <version>
0

> <i_ionizer_Ion_state_n>
1

> <i_ionizer_Tot_Q>
1

> <s_ionizer_Ion_centers>
46

> <s_ionizer_Ion_types>
N5

> <s_ionizer_Ion_ctrs_in>
9

> <r_ionizer_Ionization_penalty>
0.00889878

> <r_ionizer_Ionization_penalty_charging>
0.00148639

> <r_ionizer_Ionization_penalty_neutral>
0.00741239

$$$$
ZINC001258445559
                    3D
 Structure written by MMmdl.
 47 47  0  0  1  0            999 V2000
   -1.7148   -4.0599    1.4744 C   0  0  0  0  0  0
   -1.2921   -2.9407    0.5370 C   0  0  0  0  0  0
   -2.4974   -2.3620   -0.2073 C   0  0  0  0  0  0
   -2.1880   -1.0118   -0.8626 C   0  0  0  0  0  0
   -2.2478    0.1500    0.1390 C   0  0  0  0  0  0
   -1.8274    1.5239   -0.4382 C   0  0  1  0  0  0
   -2.2083    2.6894    0.5151 C   0  0  0  0  0  0
   -1.4973    2.7181    1.8589 C   0  0  0  0  0  0
   -0.2822    1.6601   -2.3162 C   0  0  0  0  0  0
    0.5959    0.8909   -0.1952 C   0  0  0  0  0  0
    1.9572    1.6176   -0.0784 C   0  0  0  0  0  0
    3.1405    0.6892   -0.1803 C   0  0  0  0  0  0
    3.4213   -0.2788    0.7888 C   0  0  0  0  0  0
    4.5226   -1.1226    0.6251 C   0  0  0  0  0  0
    5.3240   -0.9521   -0.4879 C   0  0  0  0  0  0
    5.0863   -0.0356   -1.4471 N   0  0  0  0  0  0
    4.0022    0.7565   -1.2697 C   0  0  0  0  0  0
   -0.8392   -4.5003    1.9635 H   0  0  0  0  0  0
   -2.2423   -4.8514    0.9358 H   0  0  0  0  0  0
   -2.3809   -3.6702    2.2517 H   0  0  0  0  0  0
   -0.5694   -3.3264   -0.1922 H   0  0  0  0  0  0
   -0.7752   -2.1688    1.1182 H   0  0  0  0  0  0
   -3.3564   -2.2585    0.4652 H   0  0  0  0  0  0
   -2.7968   -3.0750   -0.9877 H   0  0  0  0  0  0
   -2.9253   -0.8308   -1.6543 H   0  0  0  0  0  0
   -1.2156   -1.0674   -1.3519 H   0  0  0  0  0  0
   -1.6698   -0.0878    1.0342 H   0  0  0  0  0  0
   -3.2868    0.2277    0.4812 H   0  0  0  0  0  0
   -2.4786    1.6873   -1.3112 H   0  0  0  0  0  0
   -3.2903    2.6605    0.6990 H   0  0  0  0  0  0
   -2.0114    3.6425    0.0026 H   0  0  0  0  0  0
   -0.4109    2.7368    1.7498 H   0  0  0  0  0  0
   -1.7803    1.8623    2.4778 H   0  0  0  0  0  0
   -1.7811    3.6250    2.4027 H   0  0  0  0  0  0
   -0.9344    2.3928   -2.8073 H   0  0  0  0  0  0
   -0.5242    0.6670   -2.7106 H   0  0  0  0  0  0
    0.7391    1.9066   -2.6297 H   0  0  0  0  0  0
    0.7069   -0.0636   -0.7230 H   0  0  0  0  0  0
    0.2961    0.6408    0.8281 H   0  0  0  0  0  0
    1.9973    2.1502    0.8797 H   0  0  0  0  0  0
    2.0534    2.4036   -0.8382 H   0  0  0  0  0  0
    2.7966   -0.3839    1.6701 H   0  0  0  0  0  0
    4.7556   -1.8894    1.3589 H   0  0  0  0  0  0
    6.2045   -1.5684   -0.6452 H   0  0  0  0  0  0
    3.8463    1.4832   -2.0646 H   0  0  0  0  0  0
   -0.4040    1.7977   -0.8614 N   0  3  2  0  0  0
   -0.1782    2.7653   -0.6024 H   0  0  0  0  0  0
  1  2  1  0  0  0
  1 18  1  0  0  0
  1 19  1  0  0  0
  1 20  1  0  0  0
  2  3  1  0  0  0
  2 21  1  0  0  0
  2 22  1  0  0  0
  3  4  1  0  0  0
  3 23  1  0  0  0
  3 24  1  0  0  0
  4  5  1  0  0  0
  4 25  1  0  0  0
  4 26  1  0  0  0
  5  6  1  0  0  0
  5 27  1  0  0  0
  5 28  1  0  0  0
  6  7  1  0  0  0
  6 29  1  0  0  0
  6 46  1  0  0  0
  7  8  1  0  0  0
  7 30  1  0  0  0
  7 31  1  0  0  0
  8 32  1  0  0  0
  8 33  1  0  0  0
  8 34  1  0  0  0
  9 35  1  0  0  0
  9 36  1  0  0  0
  9 37  1  0  0  0
  9 46  1  0  0  0
 10 11  1  0  0  0
 10 38  1  0  0  0
 10 39  1  0  0  0
 10 46  1  0  0  0
 11 12  1  0  0  0
 11 40  1  0  0  0
 11 41  1  0  0  0
 12 13  2  0  0  0
 12 17  1  0  0  0
 13 14  1  0  0  0
 13 42  1  0  0  0
 14 15  2  0  0  0
 14 43  1  0  0  0
 15 16  1  0  0  0
 15 44  1  0  0  0
 16 17  2  0  0  0
 17 45  1  0  0  0
 46 47  1  0  0  0
M  CHG  1  46   1
M  END
> <energy>
45.3816

> <chiral flag>
0

> <version>
0

> <i_ionizer_Ion_state_n>
1

> <i_ionizer_Tot_Q>
1

> <s_ionizer_Ion_centers>
46

> <s_ionizer_Ion_types>
N5

> <s_ionizer_Ion_ctrs_in>
9

> <r_ionizer_Ionization_penalty>
0.00889878

> <r_ionizer_Ionization_penalty_charging>
0.00148639

> <r_ionizer_Ionization_penalty_neutral>
0.00741239

$$$$
ZINC001258445595
                    3D
 Structure written by MMmdl.
 49 49  0  0  1  0            999 V2000
   -3.4619   -3.6210   -2.0469 C   0  0  0  0  0  0
   -2.9413   -2.5519   -1.0931 C   0  0  0  0  0  0
   -1.6631   -2.9880   -0.3662 C   0  0  0  0  0  0
   -0.3861   -2.7617   -1.1938 C   0  0  0  0  0  0
    0.1890   -1.3355   -1.0477 C   0  0  0  0  0  0
    0.9808   -1.1055    0.2821 C   0  0  1  0  0  0
    2.3502   -1.8612    0.2084 C   0  0  0  0  0  0
    3.4308   -1.1715   -0.6207 C   0  0  0  0  0  0
    1.7169    0.4248    2.0505 C   0  0  0  0  0  0
    2.0301    1.8699    2.4486 C   0  0  0  0  0  0
    0.7972    2.7521    2.3437 C   0  0  0  0  0  0
    0.1781    2.6260    0.9569 C   0  0  2  0  0  0
   -1.0946    3.2840    0.9770 O   0  0  0  0  0  0
   -1.1981    4.3763    0.0674 C   0  0  0  0  0  0
   -1.2366    3.9053   -1.3759 C   0  0  0  0  0  0
   -0.0383    1.1462    0.5759 C   0  0  0  0  0  0
   -2.7208   -3.8777   -2.8074 H   0  0  0  0  0  0
   -4.3645   -3.2679   -2.5574 H   0  0  0  0  0  0
   -3.7237   -4.5329   -1.5016 H   0  0  0  0  0  0
   -2.7792   -1.6188   -1.6411 H   0  0  0  0  0  0
   -3.7211   -2.3542   -0.3472 H   0  0  0  0  0  0
   -1.7399   -4.0519   -0.1111 H   0  0  0  0  0  0
   -1.5940   -2.4499    0.5859 H   0  0  0  0  0  0
   -0.5946   -2.9510   -2.2529 H   0  0  0  0  0  0
    0.3571   -3.5068   -0.8966 H   0  0  0  0  0  0
   -0.6623   -0.6584   -1.1370 H   0  0  0  0  0  0
    0.8360   -1.1178   -1.9062 H   0  0  0  0  0  0
    0.3932   -1.5787    1.0793 H   0  0  0  0  0  0
    2.7335   -2.0281    1.2207 H   0  0  0  0  0  0
    2.2111   -2.8647   -0.2046 H   0  0  0  0  0  0
    3.6805   -0.1809   -0.2263 H   0  0  0  0  0  0
    4.3489   -1.7678   -0.6018 H   0  0  0  0  0  0
    3.1293   -1.0639   -1.6664 H   0  0  0  0  0  0
    2.6498   -0.1362    2.1572 H   0  0  0  0  0  0
    0.9999   -0.0044    2.7644 H   0  0  0  0  0  0
    2.4157    1.8946    3.4739 H   0  0  0  0  0  0
    2.8280    2.2627    1.8027 H   0  0  0  0  0  0
    0.0652    2.4713    3.1128 H   0  0  0  0  0  0
    1.0627    3.7978    2.5398 H   0  0  0  0  0  0
    0.8597    3.0905    0.2300 H   0  0  0  0  0  0
   -0.3804    5.0831    0.2436 H   0  0  0  0  0  0
   -2.1364    4.8909    0.2984 H   0  0  0  0  0  0
   -0.3036    3.4119   -1.6613 H   0  0  0  0  0  0
   -1.4005    4.7455   -2.0545 H   0  0  0  0  0  0
   -2.0338    3.1696   -1.5175 H   0  0  0  0  0  0
   -0.4179    1.1610   -0.4477 H   0  0  0  0  0  0
   -0.8391    0.7183    1.1941 H   0  0  0  0  0  0
    1.2147    0.3463    0.6664 N   0  3  2  0  0  0
    1.9129    0.7469    0.0289 H   0  0  0  0  0  0
  1  2  1  0  0  0
  1 17  1  0  0  0
  1 18  1  0  0  0
  1 19  1  0  0  0
  2  3  1  0  0  0
  2 20  1  0  0  0
  2 21  1  0  0  0
  3  4  1  0  0  0
  3 22  1  0  0  0
  3 23  1  0  0  0
  4  5  1  0  0  0
  4 24  1  0  0  0
  4 25  1  0  0  0
  5  6  1  0  0  0
  5 26  1  0  0  0
  5 27  1  0  0  0
  6  7  1  0  0  0
  6 28  1  0  0  0
  6 48  1  0  0  0
  7  8  1  0  0  0
  7 29  1  0  0  0
  7 30  1  0  0  0
  8 31  1  0  0  0
  8 32  1  0  0  0
  8 33  1  0  0  0
  9 10  1  0  0  0
  9 34  1  0  0  0
  9 35  1  0  0  0
  9 48  1  0  0  0
 10 11  1  0  0  0
 10 36  1  0  0  0
 10 37  1  0  0  0
 11 12  1  0  0  0
 11 38  1  0  0  0
 11 39  1  0  0  0
 12 13  1  0  0  0
 12 16  1  0  0  0
 12 40  1  0  0  0
 13 14  1  0  0  0
 14 15  1  0  0  0
 14 41  1  0  0  0
 14 42  1  0  0  0
 15 43  1  0  0  0
 15 44  1  0  0  0
 15 45  1  0  0  0
 16 46  1  0  0  0
 16 47  1  0  0  0
 16 48  1  0  0  0
 48 49  1  0  0  0
M  CHG  1  48   1
M  END
> <energy>
41.4505

> <chiral flag>
0

> <version>
0

> <i_ionizer_Ion_state_n>
1

> <i_ionizer_Tot_Q>
1

> <s_ionizer_Ion_centers>
48

> <s_ionizer_Ion_types>
N5

> <s_ionizer_Ion_ctrs_in>
9

> <r_ionizer_Ionization_penalty>
0.00148639

> <r_ionizer_Ionization_penalty_charging>
0.00148639

> <r_ionizer_Ionization_penalty_neutral>
0

$$$$
ZINC001258445597
                    3D
 Structure written by MMmdl.
 49 49  0  0  1  0            999 V2000
   -3.8138   -0.7846   -3.1910 C   0  0  0  0  0  0
   -3.7163   -1.1822   -1.7250 C   0  0  0  0  0  0
   -2.4355   -0.6462   -1.0874 C   0  0  0  0  0  0
   -2.3183   -1.0676    0.3823 C   0  0  0  0  0  0
   -1.0062   -0.5801    1.0241 C   0  0  0  0  0  0
    0.2548   -1.3823    0.5864 C   0  0  2  0  0  0
    0.2308   -2.8208    1.1846 C   0  0  0  0  0  0
    0.4113   -2.9047    2.6980 C   0  0  0  0  0  0
    2.6196   -1.1958   -0.0535 C   0  0  0  0  0  0
    2.5861   -0.4180   -1.3748 C   0  0  0  0  0  0
    2.6642    1.0823   -1.1346 C   0  0  0  0  0  0
    1.5924    1.5396   -0.1406 C   0  0  2  0  0  0
    1.8631    2.9151    0.1582 O   0  0  0  0  0  0
    0.7275    3.6093    0.6701 C   0  0  0  0  0  0
    1.1210    5.0523    0.9176 C   0  0  0  0  0  0
    1.6512    0.6638    1.1311 C   0  0  0  0  0  0
   -4.7193   -1.2052   -3.6421 H   0  0  0  0  0  0
   -3.8567    0.3047   -3.2955 H   0  0  0  0  0  0
   -2.9500   -1.1499   -3.7587 H   0  0  0  0  0  0
   -4.5926   -0.8024   -1.1894 H   0  0  0  0  0  0
   -3.7385   -2.2755   -1.6560 H   0  0  0  0  0  0
   -1.5793   -1.0139   -1.6609 H   0  0  0  0  0  0
   -2.4195    0.4496   -1.1588 H   0  0  0  0  0  0
   -2.4260   -2.1514    0.4714 H   0  0  0  0  0  0
   -3.1579   -0.6263    0.9340 H   0  0  0  0  0  0
   -0.9125    0.4767    0.7539 H   0  0  0  0  0  0
   -1.1076   -0.6101    2.1146 H   0  0  0  0  0  0
    0.1797   -1.4943   -0.4984 H   0  0  0  0  0  0
   -0.7030   -3.3271    0.9191 H   0  0  0  0  0  0
    1.0154   -3.4256    0.7167 H   0  0  0  0  0  0
    1.3485   -2.4415    3.0250 H   0  0  0  0  0  0
   -0.4172   -2.4220    3.2237 H   0  0  0  0  0  0
    0.4390   -3.9534    3.0136 H   0  0  0  0  0  0
    3.6001   -1.0507    0.4177 H   0  0  0  0  0  0
    2.5605   -2.2669   -0.2649 H   0  0  0  0  0  0
    3.4254   -0.7298   -2.0064 H   0  0  0  0  0  0
    1.6731   -0.6504   -1.9356 H   0  0  0  0  0  0
    3.6609    1.3509   -0.7650 H   0  0  0  0  0  0
    2.5451    1.6235   -2.0807 H   0  0  0  0  0  0
    0.6137    1.4537   -0.6289 H   0  0  0  0  0  0
    0.3938    3.1584    1.6101 H   0  0  0  0  0  0
   -0.0861    3.5665   -0.0645 H   0  0  0  0  0  0
    1.8576    5.1199    1.7261 H   0  0  0  0  0  0
    1.5833    5.4883    0.0272 H   0  0  0  0  0  0
    0.2476    5.6482    1.1927 H   0  0  0  0  0  0
    0.9117    0.9846    1.8731 H   0  0  0  0  0  0
    2.6048    0.8758    1.6390 H   0  0  0  0  0  0
    1.6236   -0.8297    0.9614 N   0  3  1  0  0  0
    1.8950   -1.2549    1.8557 H   0  0  0  0  0  0
  1  2  1  0  0  0
  1 17  1  0  0  0
  1 18  1  0  0  0
  1 19  1  0  0  0
  2  3  1  0  0  0
  2 20  1  0  0  0
  2 21  1  0  0  0
  3  4  1  0  0  0
  3 22  1  0  0  0
  3 23  1  0  0  0
  4  5  1  0  0  0
  4 24  1  0  0  0
  4 25  1  0  0  0
  5  6  1  0  0  0
  5 26  1  0  0  0
  5 27  1  0  0  0
  6  7  1  0  0  0
  6 28  1  0  0  0
  6 48  1  0  0  0
  7  8  1  0  0  0
  7 29  1  0  0  0
  7 30  1  0  0  0
  8 31  1  0  0  0
  8 32  1  0  0  0
  8 33  1  0  0  0
  9 10  1  0  0  0
  9 34  1  0  0  0
  9 35  1  0  0  0
  9 48  1  0  0  0
 10 11  1  0  0  0
 10 36  1  0  0  0
 10 37  1  0  0  0
 11 12  1  0  0  0
 11 38  1  0  0  0
 11 39  1  0  0  0
 12 13  1  0  0  0
 12 16  1  0  0  0
 12 40  1  0  0  0
 13 14  1  0  0  0
 14 15  1  0  0  0
 14 41  1  0  0  0
 14 42  1  0  0  0
 15 43  1  0  0  0
 15 44  1  0  0  0
 15 45  1  0  0  0
 16 46  1  0  0  0
 16 47  1  0  0  0
 16 48  1  0  0  0
 48 49  1  0  0  0
M  CHG  1  48   1
M  END
> <energy>
38.7176

> <chiral flag>
0

> <version>
0

> <i_ionizer_Ion_state_n>
1

> <i_ionizer_Tot_Q>
1

> <s_ionizer_Ion_centers>
48

> <s_ionizer_Ion_types>
N5

> <s_ionizer_Ion_ctrs_in>
9

> <r_ionizer_Ionization_penalty>
0.00148639

> <r_ionizer_Ionization_penalty_charging>
0.00148639

> <r_ionizer_Ionization_penalty_neutral>
0

$$$$
ZINC001258445598
                    3D
 Structure written by MMmdl.
 49 49  0  0  1  0            999 V2000
   -2.6898   -2.8788    2.0454 C   0  0  0  0  0  0
   -3.7591   -1.9561    1.4788 C   0  0  0  0  0  0
   -3.2789   -0.5158    1.2779 C   0  0  0  0  0  0
   -2.2432   -0.3729    0.1574 C   0  0  0  0  0  0
   -1.8176    1.0925   -0.0388 C   0  0  0  0  0  0
   -0.8765    1.2997   -1.2561 C   0  0  1  0  0  0
   -0.4503    2.7799   -1.4113 C   0  0  0  0  0  0
   -1.6101    3.7095   -1.7495 C   0  0  0  0  0  0
    0.8103    0.0236   -2.5078 C   0  0  0  0  0  0
    2.1763   -0.6792   -2.4424 C   0  0  0  0  0  0
    2.3482   -1.4619   -1.1439 C   0  0  0  0  0  0
    2.1794   -0.5433    0.0776 C   0  0  1  0  0  0
    3.4712   -0.0795    0.5005 O   0  0  0  0  0  0
    4.0229   -0.8272    1.5813 C   0  0  0  0  0  0
    3.4567   -0.3395    2.9037 C   0  0  0  0  0  0
    1.3209    0.7022   -0.2401 C   0  0  0  0  0  0
   -3.1055   -3.8795    2.2040 H   0  0  0  0  0  0
   -2.3211   -2.5068    3.0069 H   0  0  0  0  0  0
   -1.8385   -2.9808    1.3664 H   0  0  0  0  0  0
   -4.1233   -2.3616    0.5282 H   0  0  0  0  0  0
   -4.6116   -1.9490    2.1689 H   0  0  0  0  0  0
   -4.1505    0.1035    1.0364 H   0  0  0  0  0  0
   -2.8656   -0.1317    2.2189 H   0  0  0  0  0  0
   -1.3648   -0.9808    0.3948 H   0  0  0  0  0  0
   -2.6648   -0.7597   -0.7779 H   0  0  0  0  0  0
   -1.3451    1.4615    0.8796 H   0  0  0  0  0  0
   -2.7231    1.6928   -0.1860 H   0  0  0  0  0  0
   -1.4734    1.0303   -2.1383 H   0  0  0  0  0  0
    0.0324    3.1437   -0.4955 H   0  0  0  0  0  0
    0.2903    2.8721   -2.2145 H   0  0  0  0  0  0
   -1.2299    4.7076   -1.9924 H   0  0  0  0  0  0
   -2.2993    3.8123   -0.9074 H   0  0  0  0  0  0
   -2.1681    3.3442   -2.6171 H   0  0  0  0  0  0
    0.9199    0.9106   -3.1430 H   0  0  0  0  0  0
    0.0968   -0.6400   -3.0121 H   0  0  0  0  0  0
    2.9747    0.0693   -2.5166 H   0  0  0  0  0  0
    2.2857   -1.3490   -3.3022 H   0  0  0  0  0  0
    1.5847   -2.2495   -1.1116 H   0  0  0  0  0  0
    3.3258   -1.9573   -1.1345 H   0  0  0  0  0  0
    1.6950   -1.1186    0.8772 H   0  0  0  0  0  0
    3.8577   -1.9011    1.4407 H   0  0  0  0  0  0
    5.1069   -0.6625    1.5757 H   0  0  0  0  0  0
    2.3700   -0.4597    2.9430 H   0  0  0  0  0  0
    3.6610    0.7278    3.0334 H   0  0  0  0  0  0
    3.8958   -0.8873    3.7412 H   0  0  0  0  0  0
    1.9523    1.5167   -0.6217 H   0  0  0  0  0  0
    0.9148    1.0653    0.7115 H   0  0  0  0  0  0
    0.2346    0.2834   -1.1739 N   0  3  1  0  0  0
   -0.1683   -0.5923   -0.8203 H   0  0  0  0  0  0
  1  2  1  0  0  0
  1 17  1  0  0  0
  1 18  1  0  0  0
  1 19  1  0  0  0
  2  3  1  0  0  0
  2 20  1  0  0  0
  2 21  1  0  0  0
  3  4  1  0  0  0
  3 22  1  0  0  0
  3 23  1  0  0  0
  4  5  1  0  0  0
  4 24  1  0  0  0
  4 25  1  0  0  0
  5  6  1  0  0  0
  5 26  1  0  0  0
  5 27  1  0  0  0
  6  7  1  0  0  0
  6 28  1  0  0  0
  6 48  1  0  0  0
  7  8  1  0  0  0
  7 29  1  0  0  0
  7 30  1  0  0  0
  8 31  1  0  0  0
  8 32  1  0  0  0
  8 33  1  0  0  0
  9 10  1  0  0  0
  9 34  1  0  0  0
  9 35  1  0  0  0
  9 48  1  0  0  0
 10 11  1  0  0  0
 10 36  1  0  0  0
 10 37  1  0  0  0
 11 12  1  0  0  0
 11 38  1  0  0  0
 11 39  1  0  0  0
 12 13  1  0  0  0
 12 16  1  0  0  0
 12 40  1  0  0  0
 13 14  1  0  0  0
 14 15  1  0  0  0
 14 41  1  0  0  0
 14 42  1  0  0  0
 15 43  1  0  0  0
 15 44  1  0  0  0
 15 45  1  0  0  0
 16 46  1  0  0  0
 16 47  1  0  0  0
 16 48  1  0  0  0
 48 49  1  0  0  0
M  CHG  1  48   1
M  END
> <energy>
39.2809

> <chiral flag>
0

> <version>
0

> <i_ionizer_Ion_state_n>
1

> <i_ionizer_Tot_Q>
1

> <s_ionizer_Ion_centers>
48

> <s_ionizer_Ion_types>
N5

> <s_ionizer_Ion_ctrs_in>
9

> <r_ionizer_Ionization_penalty>
0.00148639

> <r_ionizer_Ionization_penalty_charging>
0.00148639

> <r_ionizer_Ionization_penalty_neutral>
0

$$$$
ZINC001258445602
                    3D
 Structure written by MMmdl.
 49 49  0  0  1  0            999 V2000
   -5.4501   -0.5755    0.6515 C   0  0  0  0  0  0
   -4.2598    0.0780    1.3360 C   0  0  0  0  0  0
   -2.9011   -0.3276    0.7579 C   0  0  0  0  0  0
   -2.7480    0.0256   -0.7260 C   0  0  0  0  0  0
   -1.3192   -0.1743   -1.2596 C   0  0  0  0  0  0
   -0.2659    0.8684   -0.8034 C   0  0  2  0  0  0
   -0.6318    2.2932   -1.2948 C   0  0  0  0  0  0
    0.2970    3.3865   -0.7706 C   0  0  0  0  0  0
    1.3858   -0.2355   -2.3992 C   0  0  0  0  0  0
    1.6219   -1.7127   -2.0642 C   0  0  0  0  0  0
    2.6462   -1.8779   -0.9471 C   0  0  0  0  0  0
    2.2716   -1.0333    0.2738 C   0  0  1  0  0  0
    3.3373   -1.1538    1.2237 O   0  0  0  0  0  0
    2.9381   -0.8285    2.5526 C   0  0  0  0  0  0
    4.1710   -0.8125    3.4331 C   0  0  0  0  0  0
    2.0916    0.4321   -0.1657 C   0  0  0  0  0  0
   -5.3513   -1.6659    0.6379 H   0  0  0  0  0  0
   -5.5641   -0.2281   -0.3799 H   0  0  0  0  0  0
   -6.3733   -0.3260    1.1838 H   0  0  0  0  0  0
   -4.2794   -0.1890    2.3979 H   0  0  0  0  0  0
   -4.3721    1.1664    1.2849 H   0  0  0  0  0  0
   -2.1242    0.1704    1.3471 H   0  0  0  0  0  0
   -2.7561   -1.4074    0.8925 H   0  0  0  0  0  0
   -3.4064   -0.6337   -1.3065 H   0  0  0  0  0  0
   -3.0960    1.0454   -0.9114 H   0  0  0  0  0  0
   -1.3847   -0.1746   -2.3548 H   0  0  0  0  0  0
   -0.9959   -1.1757   -0.9543 H   0  0  0  0  0  0
   -0.2986    0.8948    0.2945 H   0  0  0  0  0  0
   -0.6337    2.3205   -2.3908 H   0  0  0  0  0  0
   -1.6431    2.5559   -0.9729 H   0  0  0  0  0  0
   -0.0828    4.3727   -1.0590 H   0  0  0  0  0  0
    0.3621    3.3550    0.3218 H   0  0  0  0  0  0
    1.3082    3.2929   -1.1771 H   0  0  0  0  0  0
    2.3026    0.1441   -2.8700 H   0  0  0  0  0  0
    0.6177   -0.1305   -3.1711 H   0  0  0  0  0  0
    1.9761   -2.2331   -2.9615 H   0  0  0  0  0  0
    0.6868   -2.2046   -1.7763 H   0  0  0  0  0  0
    2.7387   -2.9312   -0.6641 H   0  0  0  0  0  0
    3.6372   -1.5812   -1.3133 H   0  0  0  0  0  0
    1.3424   -1.4253    0.7092 H   0  0  0  0  0  0
    2.2342   -1.5857    2.9118 H   0  0  0  0  0  0
    2.4570    0.1525    2.5888 H   0  0  0  0  0  0
    4.6850   -1.7788    3.4038 H   0  0  0  0  0  0
    3.9068   -0.5835    4.4692 H   0  0  0  0  0  0
    4.8866   -0.0617    3.0809 H   0  0  0  0  0  0
    3.0631    0.8121   -0.5110 H   0  0  0  0  0  0
    1.8557    1.0717    0.6921 H   0  0  0  0  0  0
    1.1800    0.7467   -1.2818 N   0  3  2  0  0  0
    1.4467    1.6693   -1.6450 H   0  0  0  0  0  0
  1  2  1  0  0  0
  1 17  1  0  0  0
  1 18  1  0  0  0
  1 19  1  0  0  0
  2  3  1  0  0  0
  2 20  1  0  0  0
  2 21  1  0  0  0
  3  4  1  0  0  0
  3 22  1  0  0  0
  3 23  1  0  0  0
  4  5  1  0  0  0
  4 24  1  0  0  0
  4 25  1  0  0  0
  5  6  1  0  0  0
  5 26  1  0  0  0
  5 27  1  0  0  0
  6  7  1  0  0  0
  6 28  1  0  0  0
  6 48  1  0  0  0
  7  8  1  0  0  0
  7 29  1  0  0  0
  7 30  1  0  0  0
  8 31  1  0  0  0
  8 32  1  0  0  0
  8 33  1  0  0  0
  9 10  1  0  0  0
  9 34  1  0  0  0
  9 35  1  0  0  0
  9 48  1  0  0  0
 10 11  1  0  0  0
 10 36  1  0  0  0
 10 37  1  0  0  0
 11 12  1  0  0  0
 11 38  1  0  0  0
 11 39  1  0  0  0
 12 13  1  0  0  0
 12 16  1  0  0  0
 12 40  1  0  0  0
 13 14  1  0  0  0
 14 15  1  0  0  0
 14 41  1  0  0  0
 14 42  1  0  0  0
 15 43  1  0  0  0
 15 44  1  0  0  0
 15 45  1  0  0  0
 16 46  1  0  0  0
 16 47  1  0  0  0
 16 48  1  0  0  0
 48 49  1  0  0  0
M  CHG  1  48   1
M  END
> <energy>
41.4854

> <chiral flag>
0

> <version>
0

> <i_ionizer_Ion_state_n>
1

> <i_ionizer_Tot_Q>
1

> <s_ionizer_Ion_centers>
48

> <s_ionizer_Ion_types>
N5

> <s_ionizer_Ion_ctrs_in>
9

> <r_ionizer_Ionization_penalty>
0.00148639

> <r_ionizer_Ionization_penalty_charging>
0.00148639

> <r_ionizer_Ionization_penalty_neutral>
0

$$$$
ZINC001258445651
                    3D
 Structure written by MMmdl.
 47 48  0  0  1  0            999 V2000
    2.5572    2.8339    1.6179 C   0  0  0  0  0  0
    2.0439    1.5464    2.2405 C   0  0  0  0  0  0
    0.5233    1.4304    2.1149 C   0  0  0  0  0  0
    0.0052    0.1058    2.6761 C   0  0  0  0  0  0
   -0.9322   -0.7079    1.7617 C   0  0  0  0  0  0
   -0.3726   -1.2426    0.3997 C   0  0  2  0  0  0
    0.8807   -2.1063    0.8168 C   0  0  0  0  0  0
    1.1782   -3.3620    0.0097 C   0  0  0  0  0  0
    0.7713   -0.6658   -1.7327 C   0  0  0  0  0  0
    0.1466   -1.7094   -2.6807 C   0  0  0  0  0  0
   -1.0344   -1.2062   -3.3115 O   0  0  0  0  0  0
   -1.9984   -0.8121   -2.3234 C   0  0  0  0  0  0
   -1.3990    0.2560   -1.3992 C   0  0  0  0  0  0
   -2.3983    1.1236   -0.5781 C   0  0  0  0  0  0
   -1.7149    2.4020   -1.0663 C   0  0  0  0  0  0
   -1.0835    1.5897   -2.1910 C   0  0  0  0  0  0
    2.4277    2.8164    0.5304 H   0  0  0  0  0  0
    2.0239    3.7048    2.0101 H   0  0  0  0  0  0
    3.6224    2.9573    1.8340 H   0  0  0  0  0  0
    2.3310    1.5169    3.2992 H   0  0  0  0  0  0
    2.5301    0.6970    1.7467 H   0  0  0  0  0  0
    0.0605    2.2538    2.6741 H   0  0  0  0  0  0
    0.2358    1.5722    1.0737 H   0  0  0  0  0  0
    0.8400   -0.5249    3.0051 H   0  0  0  0  0  0
   -0.5551    0.3280    3.5969 H   0  0  0  0  0  0
   -1.8793   -0.1931    1.6517 H   0  0  0  0  0  0
   -1.2272   -1.5935    2.3461 H   0  0  0  0  0  0
   -1.1214   -1.9484    0.0248 H   0  0  0  0  0  0
    1.7753   -1.4766    0.8744 H   0  0  0  0  0  0
    0.7231   -2.4795    1.8364 H   0  0  0  0  0  0
    1.8175   -4.0300    0.5992 H   0  0  0  0  0  0
    0.2648   -3.9142   -0.2240 H   0  0  0  0  0  0
    1.7209   -3.1563   -0.9140 H   0  0  0  0  0  0
    1.7162   -1.0222   -1.3182 H   0  0  0  0  0  0
    1.0843    0.1891   -2.3385 H   0  0  0  0  0  0
    0.8603   -1.9636   -3.4716 H   0  0  0  0  0  0
   -0.1184   -2.6377   -2.1715 H   0  0  0  0  0  0
   -2.8621   -0.4175   -2.8701 H   0  0  0  0  0  0
   -2.3442   -1.6949   -1.7749 H   0  0  0  0  0  0
   -3.4308    1.0406   -0.9449 H   0  0  0  0  0  0
   -2.4576    1.0977    0.5016 H   0  0  0  0  0  0
   -2.3834    3.2080   -1.3803 H   0  0  0  0  0  0
   -0.9833    2.8145   -0.3645 H   0  0  0  0  0  0
   -1.6434    1.6884   -3.1312 H   0  0  0  0  0  0
   -0.0519    1.8766   -2.4001 H   0  0  0  0  0  0
   -0.1287   -0.1592   -0.6820 N   0  3  1  0  0  0
    0.2906    0.6618   -0.2298 H   0  0  0  0  0  0
  1  2  1  0  0  0
  1 17  1  0  0  0
  1 18  1  0  0  0
  1 19  1  0  0  0
  2  3  1  0  0  0
  2 20  1  0  0  0
  2 21  1  0  0  0
  3  4  1  0  0  0
  3 22  1  0  0  0
  3 23  1  0  0  0
  4  5  1  0  0  0
  4 24  1  0  0  0
  4 25  1  0  0  0
  5  6  1  0  0  0
  5 26  1  0  0  0
  5 27  1  0  0  0
  6  7  1  0  0  0
  6 28  1  0  0  0
  6 46  1  0  0  0
  7  8  1  0  0  0
  7 29  1  0  0  0
  7 30  1  0  0  0
  8 31  1  0  0  0
  8 32  1  0  0  0
  8 33  1  0  0  0
  9 10  1  0  0  0
  9 34  1  0  0  0
  9 35  1  0  0  0
  9 46  1  0  0  0
 10 11  1  0  0  0
 10 36  1  0  0  0
 10 37  1  0  0  0
 11 12  1  0  0  0
 12 13  1  0  0  0
 12 38  1  0  0  0
 12 39  1  0  0  0
 13 14  1  0  0  0
 13 16  1  0  0  0
 13 46  1  0  0  0
 14 15  1  0  0  0
 14 40  1  0  0  0
 14 41  1  0  0  0
 15 16  1  0  0  0
 15 42  1  0  0  0
 15 43  1  0  0  0
 16 44  1  0  0  0
 16 45  1  0  0  0
 46 47  1  0  0  0
M  CHG  1  46   1
M  END
> <energy>
104.18

> <chiral flag>
0

> <version>
0

> <i_ionizer_Ion_state_n>
1

> <i_ionizer_Tot_Q>
1

> <s_ionizer_Ion_centers>
46

> <s_ionizer_Ion_types>
N5

> <s_ionizer_Ion_ctrs_in>
9

> <r_ionizer_Ionization_penalty>
0.41068

> <r_ionizer_Ionization_penalty_charging>
0.41068

> <r_ionizer_Ionization_penalty_neutral>
0

$$$$
ZINC001258445655
                    3D
 Structure written by MMmdl.
 47 48  0  0  1  0            999 V2000
   -3.7794    1.6831    1.4357 C   0  0  0  0  0  0
   -3.5066    0.3039    0.8600 C   0  0  0  0  0  0
   -2.4280   -0.4439    1.6478 C   0  0  0  0  0  0
   -1.9685   -1.7274    0.9389 C   0  0  0  0  0  0
   -1.0702   -1.4581   -0.2807 C   0  0  0  0  0  0
    0.3883   -1.0912    0.1059 C   0  0  1  0  0  0
    1.2009   -2.4009    0.3225 C   0  0  0  0  0  0
    1.5651   -3.1545   -0.9541 C   0  0  0  0  0  0
    0.6400    0.0526   -2.1368 C   0  0  0  0  0  0
   -0.3298    1.2511   -2.2275 C   0  0  0  0  0  0
    0.1985    2.4233   -1.6043 O   0  0  0  0  0  0
    0.5433    2.1563   -0.2371 C   0  0  0  0  0  0
    1.6062    1.0598   -0.1788 C   0  0  0  0  0  0
    3.0001    1.4433   -0.7779 C   0  0  0  0  0  0
    3.4330    1.8347    0.6512 C   0  0  0  0  0  0
    2.3739    0.8404    1.1626 C   0  0  0  0  0  0
   -4.1616    1.6194    2.4585 H   0  0  0  0  0  0
   -2.8686    2.2914    1.4444 H   0  0  0  0  0  0
   -4.5236    2.2058    0.8249 H   0  0  0  0  0  0
   -4.4321   -0.2841    0.8612 H   0  0  0  0  0  0
   -3.2132    0.4303   -0.1847 H   0  0  0  0  0  0
   -2.8368   -0.7096    2.6300 H   0  0  0  0  0  0
   -1.5739    0.2143    1.8372 H   0  0  0  0  0  0
   -2.8515   -2.2853    0.6057 H   0  0  0  0  0  0
   -1.4451   -2.3673    1.6577 H   0  0  0  0  0  0
   -1.0799   -2.3486   -0.9158 H   0  0  0  0  0  0
   -1.5376   -0.6776   -0.8698 H   0  0  0  0  0  0
    0.3372   -0.6136    1.0904 H   0  0  0  0  0  0
    0.6371   -3.0809    0.9728 H   0  0  0  0  0  0
    2.1292   -2.1821    0.8638 H   0  0  0  0  0  0
    0.6861   -3.4183   -1.5495 H   0  0  0  0  0  0
    2.2361   -2.5641   -1.5848 H   0  0  0  0  0  0
    2.0829   -4.0856   -0.6999 H   0  0  0  0  0  0
    1.4963    0.2843   -2.7840 H   0  0  0  0  0  0
    0.1856   -0.8403   -2.5777 H   0  0  0  0  0  0
   -0.5078    1.4934   -3.2809 H   0  0  0  0  0  0
   -1.3075    1.0514   -1.7843 H   0  0  0  0  0  0
   -0.3590    1.8788    0.3230 H   0  0  0  0  0  0
    0.9117    3.0944    0.1877 H   0  0  0  0  0  0
    3.5902    0.6121   -1.1837 H   0  0  0  0  0  0
    3.0110    2.2589   -1.5048 H   0  0  0  0  0  0
    3.2215    2.8791    0.9125 H   0  0  0  0  0  0
    4.4679    1.6017    0.9154 H   0  0  0  0  0  0
    2.8057   -0.1503    1.3305 H   0  0  0  0  0  0
    1.8480    1.1466    2.0708 H   0  0  0  0  0  0
    1.2698   -0.2368   -0.8108 N   0  3  1  0  0  0
    2.1399   -0.7562   -0.9758 H   0  0  0  0  0  0
  1  2  1  0  0  0
  1 17  1  0  0  0
  1 18  1  0  0  0
  1 19  1  0  0  0
  2  3  1  0  0  0
  2 20  1  0  0  0
  2 21  1  0  0  0
  3  4  1  0  0  0
  3 22  1  0  0  0
  3 23  1  0  0  0
  4  5  1  0  0  0
  4 24  1  0  0  0
  4 25  1  0  0  0
  5  6  1  0  0  0
  5 26  1  0  0  0
  5 27  1  0  0  0
  6  7  1  0  0  0
  6 28  1  0  0  0
  6 46  1  0  0  0
  7  8  1  0  0  0
  7 29  1  0  0  0
  7 30  1  0  0  0
  8 31  1  0  0  0
  8 32  1  0  0  0
  8 33  1  0  0  0
  9 10  1  0  0  0
  9 34  1  0  0  0
  9 35  1  0  0  0
  9 46  1  0  0  0
 10 11  1  0  0  0
 10 36  1  0  0  0
 10 37  1  0  0  0
 11 12  1  0  0  0
 12 13  1  0  0  0
 12 38  1  0  0  0
 12 39  1  0  0  0
 13 14  1  0  0  0
 13 16  1  0  0  0
 13 46  1  0  0  0
 14 15  1  0  0  0
 14 40  1  0  0  0
 14 41  1  0  0  0
 15 16  1  0  0  0
 15 42  1  0  0  0
 15 43  1  0  0  0
 16 44  1  0  0  0
 16 45  1  0  0  0
 46 47  1  0  0  0
M  CHG  1  46   1
M  END
> <energy>
90.1499

> <chiral flag>
0

> <version>
0

> <i_ionizer_Ion_state_n>
1

> <i_ionizer_Tot_Q>
1

> <s_ionizer_Ion_centers>
46

> <s_ionizer_Ion_types>
N5

> <s_ionizer_Ion_ctrs_in>
9

> <r_ionizer_Ionization_penalty>
0.41068

> <r_ionizer_Ionization_penalty_charging>
0.41068

> <r_ionizer_Ionization_penalty_neutral>
0

$$$$
ZINC001258445868
                    3D
 Structure written by MMmdl.
 49 49  0  0  1  0            999 V2000
   -3.3186    2.3860   -0.7189 C   0  0  0  0  0  0
   -3.9531    1.2675    0.0983 C   0  0  0  0  0  0
   -3.5052   -0.1230   -0.3536 C   0  0  0  0  0  0
   -2.0925   -0.4948    0.1159 C   0  0  0  0  0  0
   -1.5980   -1.7589   -0.5905 C   0  0  0  0  0  0
   -0.3211   -2.4360   -0.0198 C   0  0  2  0  0  0
   -0.6350   -3.1685    1.3099 C   0  0  0  0  0  0
    0.4696   -4.1245    1.7468 C   0  0  0  0  0  0
    1.4043   -1.1452   -1.2609 C   0  0  0  0  0  0
    1.6871    0.3530   -1.3019 C   0  0  0  0  0  0
    2.6329    0.7985   -0.1815 C   0  0  1  0  0  0
    2.3755    2.1655    0.1776 O   0  0  0  0  0  0
    2.8604    3.1080   -0.7773 C   0  0  0  0  0  0
    2.5693    4.5032   -0.2557 C   0  0  0  0  0  0
    2.4695   -0.0518    1.0801 C   0  0  0  0  0  0
    1.0859   -0.6985    1.1505 C   0  0  0  0  0  0
   -3.6708    3.3602   -0.3638 H   0  0  0  0  0  0
   -2.2278    2.3810   -0.6442 H   0  0  0  0  0  0
   -3.5894    2.2952   -1.7763 H   0  0  0  0  0  0
   -3.7311    1.4124    1.1613 H   0  0  0  0  0  0
   -5.0423    1.3418   -0.0134 H   0  0  0  0  0  0
   -3.5723   -0.1907   -1.4452 H   0  0  0  0  0  0
   -4.2072   -0.8629    0.0504 H   0  0  0  0  0  0
   -1.4080    0.3280   -0.1077 H   0  0  0  0  0  0
   -2.1050   -0.6350    1.2023 H   0  0  0  0  0  0
   -2.4041   -2.5056   -0.5936 H   0  0  0  0  0  0
   -1.4321   -1.5141   -1.6475 H   0  0  0  0  0  0
   -0.0960   -3.2458   -0.7303 H   0  0  0  0  0  0
   -1.5491   -3.7623    1.1851 H   0  0  0  0  0  0
   -0.8456   -2.4567    2.1140 H   0  0  0  0  0  0
    0.1919   -4.6188    2.6831 H   0  0  0  0  0  0
    0.6306   -4.9041    0.9957 H   0  0  0  0  0  0
    1.4191   -3.6082    1.9115 H   0  0  0  0  0  0
    2.3364   -1.6879   -1.4638 H   0  0  0  0  0  0
    0.7374   -1.3947   -2.0908 H   0  0  0  0  0  0
    2.1264    0.6169   -2.2720 H   0  0  0  0  0  0
    0.7433    0.9103   -1.2452 H   0  0  0  0  0  0
    3.6795    0.7165   -0.5070 H   0  0  0  0  0  0
    3.9414    2.9809   -0.9080 H   0  0  0  0  0  0
    2.3599    2.9628   -1.7404 H   0  0  0  0  0  0
    3.0612    4.6664    0.7089 H   0  0  0  0  0  0
    2.9118    5.2628   -0.9633 H   0  0  0  0  0  0
    1.4948    4.6325   -0.0926 H   0  0  0  0  0  0
    3.2258   -0.8477    1.0792 H   0  0  0  0  0  0
    2.6393    0.5461    1.9831 H   0  0  0  0  0  0
    1.0331   -1.2395    2.1000 H   0  0  0  0  0  0
    0.3267    0.0868    1.1855 H   0  0  0  0  0  0
    1.0159   -1.7251    0.0552 N   0  3  1  0  0  0
    1.7151   -2.4419    0.2822 H   0  0  0  0  0  0
  1  2  1  0  0  0
  1 17  1  0  0  0
  1 18  1  0  0  0
  1 19  1  0  0  0
  2  3  1  0  0  0
  2 20  1  0  0  0
  2 21  1  0  0  0
  3  4  1  0  0  0
  3 22  1  0  0  0
  3 23  1  0  0  0
  4  5  1  0  0  0
  4 24  1  0  0  0
  4 25  1  0  0  0
  5  6  1  0  0  0
  5 26  1  0  0  0
  5 27  1  0  0  0
  6  7  1  0  0  0
  6 28  1  0  0  0
  6 48  1  0  0  0
  7  8  1  0  0  0
  7 29  1  0  0  0
  7 30  1  0  0  0
  8 31  1  0  0  0
  8 32  1  0  0  0
  8 33  1  0  0  0
  9 10  1  0  0  0
  9 34  1  0  0  0
  9 35  1  0  0  0
  9 48  1  0  0  0
 10 11  1  0  0  0
 10 36  1  0  0  0
 10 37  1  0  0  0
 11 12  1  0  0  0
 11 15  1  0  0  0
 11 38  1  0  0  0
 12 13  1  0  0  0
 13 14  1  0  0  0
 13 39  1  0  0  0
 13 40  1  0  0  0
 14 41  1  0  0  0
 14 42  1  0  0  0
 14 43  1  0  0  0
 15 16  1  0  0  0
 15 44  1  0  0  0
 15 45  1  0  0  0
 16 46  1  0  0  0
 16 47  1  0  0  0
 16 48  1  0  0  0
 48 49  1  0  0  0
M  CHG  1  48   1
M  END
> <energy>
17.9211

> <chiral flag>
0

> <version>
0

> <i_ionizer_Ion_state_n>
1

> <i_ionizer_Tot_Q>
1

> <s_ionizer_Ion_centers>
48

> <s_ionizer_Ion_types>
N5

> <s_ionizer_Ion_ctrs_in>
9

> <r_ionizer_Ionization_penalty>
0.00148639

> <r_ionizer_Ionization_penalty_charging>
0.00148639

> <r_ionizer_Ionization_penalty_neutral>
0

$$$$
ZINC001258445870
                    3D
 Structure written by MMmdl.
 49 49  0  0  1  0            999 V2000
   -1.2608   -3.0532   -2.9603 C   0  0  0  0  0  0
   -0.6703   -2.2283   -1.8275 C   0  0  0  0  0  0
    0.2551   -3.0653   -0.9396 C   0  0  0  0  0  0
    0.7762   -2.2707    0.2625 C   0  0  0  0  0  0
    1.9527   -1.3407   -0.0882 C   0  0  0  0  0  0
    2.1384   -0.2082    0.9511 C   0  0  1  0  0  0
    3.4975    0.5225    0.8377 C   0  0  0  0  0  0
    4.0675    0.7070   -0.5629 C   0  0  0  0  0  0
    0.5698    1.2377    2.2277 C   0  0  0  0  0  0
   -0.9563    1.4292    2.2434 C   0  0  0  0  0  0
   -1.5212    1.9840    0.9215 C   0  0  2  0  0  0
   -2.1686    0.9497    0.1623 O   0  0  0  0  0  0
   -3.5208    0.6994    0.5380 C   0  0  0  0  0  0
   -4.4591    1.5362   -0.3136 C   0  0  0  0  0  0
   -0.4037    2.5598    0.0573 C   0  0  0  0  0  0
    0.7124    1.5335   -0.1911 C   0  0  0  0  0  0
   -1.9301   -2.4370   -3.5705 H   0  0  0  0  0  0
   -1.8393   -3.8989   -2.5727 H   0  0  0  0  0  0
   -0.4745   -3.4456   -3.6133 H   0  0  0  0  0  0
   -0.1278   -1.3790   -2.2536 H   0  0  0  0  0  0
   -1.4897   -1.8157   -1.2260 H   0  0  0  0  0  0
    1.0944   -3.4578   -1.5275 H   0  0  0  0  0  0
   -0.3063   -3.9286   -0.5620 H   0  0  0  0  0  0
    1.1241   -2.9777    1.0279 H   0  0  0  0  0  0
   -0.0572   -1.7167    0.7125 H   0  0  0  0  0  0
    2.8619   -1.9548   -0.1277 H   0  0  0  0  0  0
    1.8274   -0.9203   -1.0916 H   0  0  0  0  0  0
    2.1658   -0.7186    1.9254 H   0  0  0  0  0  0
    4.2347   -0.0537    1.4127 H   0  0  0  0  0  0
    3.4417    1.4972    1.3380 H   0  0  0  0  0  0
    4.3608   -0.2539   -0.9966 H   0  0  0  0  0  0
    4.9668    1.3299   -0.5154 H   0  0  0  0  0  0
    3.3669    1.1877   -1.2465 H   0  0  0  0  0  0
    1.0900    2.1875    2.4049 H   0  0  0  0  0  0
    0.8310    0.5824    3.0679 H   0  0  0  0  0  0
   -1.4364    0.4742    2.4872 H   0  0  0  0  0  0
   -1.1970    2.1242    3.0556 H   0  0  0  0  0  0
   -2.2448    2.7802    1.1334 H   0  0  0  0  0  0
   -3.7151   -0.3607    0.3494 H   0  0  0  0  0  0
   -3.6854    0.8824    1.6052 H   0  0  0  0  0  0
   -4.3230    1.3083   -1.3774 H   0  0  0  0  0  0
   -4.2583    2.6045   -0.1892 H   0  0  0  0  0  0
   -5.5030    1.3448   -0.0510 H   0  0  0  0  0  0
    0.0157    3.4428    0.5563 H   0  0  0  0  0  0
   -0.8012    2.8914   -0.9101 H   0  0  0  0  0  0
    1.6050    2.1056   -0.4595 H   0  0  0  0  0  0
    0.4383    0.9227   -1.0583 H   0  0  0  0  0  0
    0.8274    0.5607    0.9420 N   0  3  1  0  0  0
    0.0825   -0.1342    0.8134 H   0  0  0  0  0  0
  1  2  1  0  0  0
  1 17  1  0  0  0
  1 18  1  0  0  0
  1 19  1  0  0  0
  2  3  1  0  0  0
  2 20  1  0  0  0
  2 21  1  0  0  0
  3  4  1  0  0  0
  3 22  1  0  0  0
  3 23  1  0  0  0
  4  5  1  0  0  0
  4 24  1  0  0  0
  4 25  1  0  0  0
  5  6  1  0  0  0
  5 26  1  0  0  0
  5 27  1  0  0  0
  6  7  1  0  0  0
  6 28  1  0  0  0
  6 48  1  0  0  0
  7  8  1  0  0  0
  7 29  1  0  0  0
  7 30  1  0  0  0
  8 31  1  0  0  0
  8 32  1  0  0  0
  8 33  1  0  0  0
  9 10  1  0  0  0
  9 34  1  0  0  0
  9 35  1  0  0  0
  9 48  1  0  0  0
 10 11  1  0  0  0
 10 36  1  0  0  0
 10 37  1  0  0  0
 11 12  1  0  0  0
 11 15  1  0  0  0
 11 38  1  0  0  0
 12 13  1  0  0  0
 13 14  1  0  0  0
 13 39  1  0  0  0
 13 40  1  0  0  0
 14 41  1  0  0  0
 14 42  1  0  0  0
 14 43  1  0  0  0
 15 16  1  0  0  0
 15 44  1  0  0  0
 15 45  1  0  0  0
 16 46  1  0  0  0
 16 47  1  0  0  0
 16 48  1  0  0  0
 48 49  1  0  0  0
M  CHG  1  48   1
M  END
> <energy>
24.6534

> <chiral flag>
0

> <version>
0

> <i_ionizer_Ion_state_n>
1

> <i_ionizer_Tot_Q>
1

> <s_ionizer_Ion_centers>
48

> <s_ionizer_Ion_types>
N5

> <s_ionizer_Ion_ctrs_in>
9

> <r_ionizer_Ionization_penalty>
0.00148639

> <r_ionizer_Ionization_penalty_charging>
0.00148639

> <r_ionizer_Ionization_penalty_neutral>
0

$$$$
ZINC001258445929
                    3D
 Structure written by MMmdl.
 47 47  0  0  1  0            999 V2000
   -3.8981    3.1172    0.6895 C   0  0  0  0  0  0
   -4.5688    1.7496    0.6696 C   0  0  0  0  0  0
   -3.9150    0.7705   -0.3097 C   0  0  0  0  0  0
   -2.4772    0.3886    0.0625 C   0  0  0  0  0  0
   -1.8229   -0.4466   -1.0456 C   0  0  0  0  0  0
   -0.3523   -0.8799   -0.7854 C   0  0  2  0  0  0
   -0.2146   -1.8930    0.3689 C   0  0  0  0  0  0
   -0.9686   -3.1957    0.1201 C   0  0  0  0  0  0
    1.5134    0.4748   -1.7123 C   0  0  0  0  0  0
    2.8700   -0.0950   -1.2930 C   0  0  0  0  0  0
    3.3240    0.5478    0.0192 C   0  0  2  0  0  0
    4.6891    0.0522    0.4800 C   0  0  0  0  0  0
    4.9008   -1.4281    0.6775 C   0  0  0  0  0  0
    5.6012    0.8457    0.7043 O   0  0  0  0  0  0
    2.2644    0.3496    1.1009 C   0  0  0  0  0  0
    0.8930    0.8331    0.6248 C   0  0  0  0  0  0
   -4.4725    3.8123    1.3100 H   0  0  0  0  0  0
   -2.8878    3.0635    1.1040 H   0  0  0  0  0  0
   -3.8352    3.5405   -0.3181 H   0  0  0  0  0  0
   -4.5785    1.3254    1.6802 H   0  0  0  0  0  0
   -5.6156    1.8846    0.3696 H   0  0  0  0  0  0
   -4.5265   -0.1402   -0.3530 H   0  0  0  0  0  0
   -3.9311    1.2095   -1.3157 H   0  0  0  0  0  0
   -1.8883    1.2952    0.2150 H   0  0  0  0  0  0
   -2.4837   -0.1618    1.0082 H   0  0  0  0  0  0
   -2.4407   -1.3313   -1.2446 H   0  0  0  0  0  0
   -1.8519    0.1361   -1.9785 H   0  0  0  0  0  0
   -0.0569   -1.4253   -1.6950 H   0  0  0  0  0  0
    0.8419   -2.1577    0.4933 H   0  0  0  0  0  0
   -0.5637   -1.4731    1.3173 H   0  0  0  0  0  0
   -0.7572   -3.9111    0.9209 H   0  0  0  0  0  0
   -2.0508   -3.0446    0.0961 H   0  0  0  0  0  0
   -0.6602   -3.6508   -0.8275 H   0  0  0  0  0  0
    1.6392    1.5457   -1.9214 H   0  0  0  0  0  0
    1.1995    0.0344   -2.6668 H   0  0  0  0  0  0
    3.6108    0.0998   -2.0796 H   0  0  0  0  0  0
    2.7977   -1.1847   -1.1917 H   0  0  0  0  0  0
    3.4431    1.6266   -0.1557 H   0  0  0  0  0  0
    5.9175   -1.6040    1.0424 H   0  0  0  0  0  0
    4.2026   -1.8111    1.4230 H   0  0  0  0  0  0
    4.7836   -1.9581   -0.2698 H   0  0  0  0  0  0
    2.2109   -0.7030    1.3928 H   0  0  0  0  0  0
    2.5516    0.8993    2.0064 H   0  0  0  0  0  0
    0.1434    0.6353    1.3955 H   0  0  0  0  0  0
    0.9362    1.9276    0.5559 H   0  0  0  0  0  0
    0.3977    0.4499   -0.7413 N   0  3  2  0  0  0
   -0.2721    1.1736   -1.0274 H   0  0  0  0  0  0
  1  2  1  0  0  0
  1 17  1  0  0  0
  1 18  1  0  0  0
  1 19  1  0  0  0
  2  3  1  0  0  0
  2 20  1  0  0  0
  2 21  1  0  0  0
  3  4  1  0  0  0
  3 22  1  0  0  0
  3 23  1  0  0  0
  4  5  1  0  0  0
  4 24  1  0  0  0
  4 25  1  0  0  0
  5  6  1  0  0  0
  5 26  1  0  0  0
  5 27  1  0  0  0
  6  7  1  0  0  0
  6 28  1  0  0  0
  6 46  1  0  0  0
  7  8  1  0  0  0
  7 29  1  0  0  0
  7 30  1  0  0  0
  8 31  1  0  0  0
  8 32  1  0  0  0
  8 33  1  0  0  0
  9 10  1  0  0  0
  9 34  1  0  0  0
  9 35  1  0  0  0
  9 46  1  0  0  0
 10 11  1  0  0  0
 10 36  1  0  0  0
 10 37  1  0  0  0
 11 12  1  0  0  0
 11 15  1  0  0  0
 11 38  1  0  0  0
 12 13  1  0  0  0
 12 14  2  0  0  0
 13 39  1  0  0  0
 13 40  1  0  0  0
 13 41  1  0  0  0
 15 16  1  0  0  0
 15 42  1  0  0  0
 15 43  1  0  0  0
 16 44  1  0  0  0
 16 45  1  0  0  0
 16 46  1  0  0  0
 46 47  1  0  0  0
M  CHG  1  46   1
M  END
> <energy>
15.3177

> <chiral flag>
0

> <version>
0

> <i_ionizer_Ion_state_n>
1

> <i_ionizer_Tot_Q>
1

> <s_ionizer_Ion_centers>
46

> <s_ionizer_Ion_types>
N5

> <s_ionizer_Ion_ctrs_in>
9

> <r_ionizer_Ionization_penalty>
0.00148639

> <r_ionizer_Ionization_penalty_charging>
0.00148639

> <r_ionizer_Ionization_penalty_neutral>
0

$$$$
ZINC001258445930
                    3D
 Structure written by MMmdl.
 47 47  0  0  1  0            999 V2000
   -5.1016   -1.9564   -0.6316 C   0  0  0  0  0  0
   -3.6261   -1.6422   -0.8245 C   0  0  0  0  0  0
   -3.2908   -0.2060   -0.4165 C   0  0  0  0  0  0
   -1.7982    0.0793   -0.6037 C   0  0  0  0  0  0
   -1.4031    1.4692   -0.0778 C   0  0  0  0  0  0
    0.0674    1.8486   -0.4029 C   0  0  1  0  0  0
    0.4629    3.2256    0.1827 C   0  0  0  0  0  0
   -0.3276    4.3908   -0.4043 C   0  0  0  0  0  0
    2.1891    0.6537   -0.8004 C   0  0  0  0  0  0
    3.1498   -0.4206   -0.2644 C   0  0  0  0  0  0
    2.3883   -1.4781    0.5370 C   0  0  1  0  0  0
    3.3220   -2.5933    0.9776 C   0  0  0  0  0  0
    3.2538   -3.8778    0.1903 C   0  0  0  0  0  0
    4.1190   -2.4567    1.9086 O   0  0  0  0  0  0
    1.6626   -0.8267    1.7262 C   0  0  0  0  0  0
    1.2354    0.6188    1.4322 C   0  0  0  0  0  0
   -5.4035   -1.7978    0.4094 H   0  0  0  0  0  0
   -5.7227   -1.3234   -1.2736 H   0  0  0  0  0  0
   -5.3009   -3.0018   -0.8920 H   0  0  0  0  0  0
   -3.3573   -1.8053   -1.8750 H   0  0  0  0  0  0
   -3.0316   -2.3433   -0.2263 H   0  0  0  0  0  0
   -3.8797    0.4972   -1.0182 H   0  0  0  0  0  0
   -3.5691   -0.0486    0.6322 H   0  0  0  0  0  0
   -1.2262   -0.6950   -0.0792 H   0  0  0  0  0  0
   -1.5479    0.0016   -1.6676 H   0  0  0  0  0  0
   -2.0744    2.2074   -0.5322 H   0  0  0  0  0  0
   -1.5838    1.5078    1.0028 H   0  0  0  0  0  0
    0.1123    1.9301   -1.4978 H   0  0  0  0  0  0
    1.5250    3.4178   -0.0159 H   0  0  0  0  0  0
    0.3371    3.2333    1.2721 H   0  0  0  0  0  0
   -1.3898    4.3304   -0.1539 H   0  0  0  0  0  0
   -0.2273    4.4263   -1.4936 H   0  0  0  0  0  0
    0.0481    5.3371   -0.0019 H   0  0  0  0  0  0
    1.9074    0.3811   -1.8254 H   0  0  0  0  0  0
    2.7253    1.6094   -0.8550 H   0  0  0  0  0  0
    3.6971   -0.8801   -1.0960 H   0  0  0  0  0  0
    3.9052    0.0498    0.3789 H   0  0  0  0  0  0
    1.6301   -1.9325   -0.1160 H   0  0  0  0  0  0
    3.5029   -3.6772   -0.8546 H   0  0  0  0  0  0
    3.9677   -4.6014    0.5911 H   0  0  0  0  0  0
    2.2485   -4.2991    0.2638 H   0  0  0  0  0  0
    0.7801   -1.4340    1.9689 H   0  0  0  0  0  0
    2.2852   -0.8290    2.6278 H   0  0  0  0  0  0
    2.0197    1.3167    1.7501 H   0  0  0  0  0  0
    0.3539    0.8388    2.0432 H   0  0  0  0  0  0
    0.9287    0.6652   -0.0285 N   0  3  1  0  0  0
    0.4038   -0.1849   -0.2654 H   0  0  0  0  0  0
  1  2  1  0  0  0
  1 17  1  0  0  0
  1 18  1  0  0  0
  1 19  1  0  0  0
  2  3  1  0  0  0
  2 20  1  0  0  0
  2 21  1  0  0  0
  3  4  1  0  0  0
  3 22  1  0  0  0
  3 23  1  0  0  0
  4  5  1  0  0  0
  4 24  1  0  0  0
  4 25  1  0  0  0
  5  6  1  0  0  0
  5 26  1  0  0  0
  5 27  1  0  0  0
  6  7  1  0  0  0
  6 28  1  0  0  0
  6 46  1  0  0  0
  7  8  1  0  0  0
  7 29  1  0  0  0
  7 30  1  0  0  0
  8 31  1  0  0  0
  8 32  1  0  0  0
  8 33  1  0  0  0
  9 10  1  0  0  0
  9 34  1  0  0  0
  9 35  1  0  0  0
  9 46  1  0  0  0
 10 11  1  0  0  0
 10 36  1  0  0  0
 10 37  1  0  0  0
 11 12  1  0  0  0
 11 15  1  0  0  0
 11 38  1  0  0  0
 12 13  1  0  0  0
 12 14  2  0  0  0
 13 39  1  0  0  0
 13 40  1  0  0  0
 13 41  1  0  0  0
 15 16  1  0  0  0
 15 42  1  0  0  0
 15 43  1  0  0  0
 16 44  1  0  0  0
 16 45  1  0  0  0
 16 46  1  0  0  0
 46 47  1  0  0  0
M  CHG  1  46   1
M  END
> <energy>
10.2525

> <chiral flag>
0

> <version>
0

> <i_ionizer_Ion_state_n>
1

> <i_ionizer_Tot_Q>
1

> <s_ionizer_Ion_centers>
46

> <s_ionizer_Ion_types>
N5

> <s_ionizer_Ion_ctrs_in>
9

> <r_ionizer_Ionization_penalty>
0.00148639

> <r_ionizer_Ionization_penalty_charging>
0.00148639

> <r_ionizer_Ionization_penalty_neutral>
0

$$$$
ZINC001258445961
                    3D
 Structure written by MMmdl.
 43 44  0  0  1  0            999 V2000
   -4.8602   -0.8861   -1.3864 C   0  0  0  0  0  0
   -3.6750   -1.4424   -0.6131 C   0  0  0  0  0  0
   -2.8175   -0.3294   -0.0083 C   0  0  0  0  0  0
   -1.6879   -0.9106    0.8521 C   0  0  0  0  0  0
   -0.8105    0.1775    1.4905 C   0  0  0  0  0  0
    0.1822    0.8674    0.5143 C   0  0  1  0  0  0
    0.8445    2.1111    1.1571 C   0  0  0  0  0  0
   -0.1582    3.2055    1.5162 C   0  0  0  0  0  0
    1.9982   -0.8359    0.8924 C   0  0  0  0  0  0
    3.3123   -0.9265    0.1055 C   0  0  1  0  0  0
    3.1077   -1.7837   -1.1553 C   0  0  0  0  0  0
    2.2157   -0.8841   -2.0306 C   0  0  0  0  0  0
    2.0015    0.3534   -1.1371 C   0  0  2  0  0  0
    3.3723    0.4786   -0.4797 C   0  0  0  0  0  0
   -5.4304   -1.7034   -1.8420 H   0  0  0  0  0  0
   -4.5338   -0.2125   -2.1852 H   0  0  0  0  0  0
   -5.5357   -0.3339   -0.7241 H   0  0  0  0  0  0
   -3.0627   -2.0544   -1.2863 H   0  0  0  0  0  0
   -4.0448   -2.1016    0.1802 H   0  0  0  0  0  0
   -3.4454    0.3262    0.6083 H   0  0  0  0  0  0
   -2.4046    0.2836   -0.8174 H   0  0  0  0  0  0
   -2.1360   -1.5007    1.6619 H   0  0  0  0  0  0
   -1.0786   -1.6024    0.2595 H   0  0  0  0  0  0
   -0.2528   -0.2665    2.3240 H   0  0  0  0  0  0
   -1.4786    0.9186    1.9421 H   0  0  0  0  0  0
   -0.4108    1.2375   -0.3314 H   0  0  0  0  0  0
    1.5540    2.5553    0.4517 H   0  0  0  0  0  0
    1.4113    1.8380    2.0540 H   0  0  0  0  0  0
   -0.7524    2.9354    2.3953 H   0  0  0  0  0  0
   -0.8375    3.4062    0.6821 H   0  0  0  0  0  0
    0.3689    4.1374    1.7493 H   0  0  0  0  0  0
    1.5940   -1.8229    1.1374 H   0  0  0  0  0  0
    2.1657   -0.2816    1.8209 H   0  0  0  0  0  0
    4.1719   -1.2234    0.7109 H   0  0  0  0  0  0
    4.0620   -1.9717   -1.6590 H   0  0  0  0  0  0
    2.6345   -2.7464   -0.9406 H   0  0  0  0  0  0
    2.7446   -0.6083   -2.9500 H   0  0  0  0  0  0
    1.2795   -1.3797   -2.3111 H   0  0  0  0  0  0
    1.6412    1.2252   -1.6897 H   0  0  0  0  0  0
    3.4405    1.2537    0.2886 H   0  0  0  0  0  0
    4.1883    0.6106   -1.1997 H   0  0  0  0  0  0
    1.1130   -0.1907   -0.0972 N   0  3  2  0  0  0
    0.5168   -0.9115   -0.5204 H   0  0  0  0  0  0
  1  2  1  0  0  0
  1 15  1  0  0  0
  1 16  1  0  0  0
  1 17  1  0  0  0
  2  3  1  0  0  0
  2 18  1  0  0  0
  2 19  1  0  0  0
  3  4  1  0  0  0
  3 20  1  0  0  0
  3 21  1  0  0  0
  4  5  1  0  0  0
  4 22  1  0  0  0
  4 23  1  0  0  0
  5  6  1  0  0  0
  5 24  1  0  0  0
  5 25  1  0  0  0
  6  7  1  0  0  0
  6 26  1  0  0  0
  6 42  1  0  0  0
  7  8  1  0  0  0
  7 27  1  0  0  0
  7 28  1  0  0  0
  8 29  1  0  0  0
  8 30  1  0  0  0
  8 31  1  0  0  0
  9 10  1  0  0  0
  9 32  1  0  0  0
  9 33  1  0  0  0
  9 42  1  0  0  0
 10 11  1  0  0  0
 10 14  1  0  0  0
 10 34  1  0  0  0
 11 12  1  0  0  0
 11 35  1  0  0  0
 11 36  1  0  0  0
 12 13  1  0  0  0
 12 37  1  0  0  0
 12 38  1  0  0  0
 13 14  1  0  0  0
 13 39  1  0  0  0
 13 42  1  0  0  0
 14 40  1  0  0  0
 14 41  1  0  0  0
 42 43  1  0  0  0
M  CHG  1  42   1
M  END
> <energy>
26.6952

> <chiral flag>
0

> <version>
0

> <i_ionizer_Ion_state_n>
1

> <i_ionizer_Tot_Q>
1

> <s_ionizer_Ion_centers>
42

> <s_ionizer_Ion_types>
N5

> <s_ionizer_Ion_ctrs_in>
9

> <r_ionizer_Ionization_penalty>
0.00148639

> <r_ionizer_Ionization_penalty_charging>
0.00148639

> <r_ionizer_Ionization_penalty_neutral>
0

$$$$
ZINC001258445963
                    3D
 Structure written by MMmdl.
 43 44  0  0  1  0            999 V2000
   -5.5613   -1.2741   -0.2198 C   0  0  0  0  0  0
   -4.2790   -0.4860   -0.4248 C   0  0  0  0  0  0
   -3.0703   -1.2240    0.1499 C   0  0  0  0  0  0
   -1.7742   -0.4488   -0.1065 C   0  0  0  0  0  0
   -0.5602   -1.1736    0.4900 C   0  0  0  0  0  0
    0.7928   -0.6620   -0.0672 C   0  0  2  0  0  0
    1.9585   -1.5012    0.5118 C   0  0  0  0  0  0
    2.0101   -2.9164   -0.0538 C   0  0  0  0  0  0
    1.5224    1.3009    1.3706 C   0  0  0  0  0  0
    2.2218    2.5598    0.8336 C   0  0  1  0  0  0
    3.4541    2.1248    0.0167 C   0  0  0  0  0  0
    2.8232    1.4754   -1.2242 C   0  0  0  0  0  0
    1.3180    1.6250   -0.9575 C   0  0  2  0  0  0
    1.2654    2.9905   -0.2731 C   0  0  0  0  0  0
   -5.7539   -1.4483    0.8435 H   0  0  0  0  0  0
   -6.4119   -0.7244   -0.6365 H   0  0  0  0  0  0
   -5.5069   -2.2458   -0.7222 H   0  0  0  0  0  0
   -4.1361   -0.3155   -1.4971 H   0  0  0  0  0  0
   -4.3780    0.4973    0.0509 H   0  0  0  0  0  0
   -3.2028   -1.3806    1.2267 H   0  0  0  0  0  0
   -2.9945   -2.2144   -0.3170 H   0  0  0  0  0  0
   -1.8545    0.5562    0.3300 H   0  0  0  0  0  0
   -1.6375   -0.3270   -1.1886 H   0  0  0  0  0  0
   -0.5829   -1.0800    1.5836 H   0  0  0  0  0  0
   -0.6572   -2.2423    0.2705 H   0  0  0  0  0  0
    0.7647   -0.8366   -1.1512 H   0  0  0  0  0  0
    2.9190   -1.0247    0.2861 H   0  0  0  0  0  0
    1.8817   -1.5643    1.6036 H   0  0  0  0  0  0
    2.0491   -2.8994   -1.1484 H   0  0  0  0  0  0
    2.9059   -3.4300    0.3099 H   0  0  0  0  0  0
    1.1431   -3.5090    0.2518 H   0  0  0  0  0  0
    2.2444    0.6354    1.8476 H   0  0  0  0  0  0
    0.7515    1.5596    2.1031 H   0  0  0  0  0  0
    2.4352    3.3107    1.5980 H   0  0  0  0  0  0
    4.1019    1.4321    0.5619 H   0  0  0  0  0  0
    4.0525    2.9934   -0.2764 H   0  0  0  0  0  0
    3.1452    0.4405   -1.3695 H   0  0  0  0  0  0
    3.1094    2.0339   -2.1227 H   0  0  0  0  0  0
    0.6876    1.5469   -1.8468 H   0  0  0  0  0  0
    0.2686    3.2625    0.0950 H   0  0  0  0  0  0
    1.6600    3.8027   -0.8939 H   0  0  0  0  0  0
    0.7763    0.8579    0.1726 N   0  3  1  0  0  0
   -0.2071    1.1250    0.2983 H   0  0  0  0  0  0
  1  2  1  0  0  0
  1 15  1  0  0  0
  1 16  1  0  0  0
  1 17  1  0  0  0
  2  3  1  0  0  0
  2 18  1  0  0  0
  2 19  1  0  0  0
  3  4  1  0  0  0
  3 20  1  0  0  0
  3 21  1  0  0  0
  4  5  1  0  0  0
  4 22  1  0  0  0
  4 23  1  0  0  0
  5  6  1  0  0  0
  5 24  1  0  0  0
  5 25  1  0  0  0
  6  7  1  0  0  0
  6 26  1  0  0  0
  6 42  1  0  0  0
  7  8  1  0  0  0
  7 27  1  0  0  0
  7 28  1  0  0  0
  8 29  1  0  0  0
  8 30  1  0  0  0
  8 31  1  0  0  0
  9 10  1  0  0  0
  9 32  1  0  0  0
  9 33  1  0  0  0
  9 42  1  0  0  0
 10 11  1  0  0  0
 10 14  1  0  0  0
 10 34  1  0  0  0
 11 12  1  0  0  0
 11 35  1  0  0  0
 11 36  1  0  0  0
 12 13  1  0  0  0
 12 37  1  0  0  0
 12 38  1  0  0  0
 13 14  1  0  0  0
 13 39  1  0  0  0
 13 42  1  0  0  0
 14 40  1  0  0  0
 14 41  1  0  0  0
 42 43  1  0  0  0
M  CHG  1  42   1
M  END
> <energy>
28.4843

> <chiral flag>
0

> <version>
0

> <i_ionizer_Ion_state_n>
1

> <i_ionizer_Tot_Q>
1

> <s_ionizer_Ion_centers>
42

> <s_ionizer_Ion_types>
N5

> <s_ionizer_Ion_ctrs_in>
9

> <r_ionizer_Ionization_penalty>
0.00148639

> <r_ionizer_Ionization_penalty_charging>
0.00148639

> <r_ionizer_Ionization_penalty_neutral>
0

$$$$
ZINC001258446191
                    3D
 Structure written by MMmdl.
 49 49  0  0  1  0            999 V2000
   -3.8030    2.2464    0.5111 C   0  0  0  0  0  0
   -4.4281    0.8951    0.1930 C   0  0  0  0  0  0
   -3.4362   -0.0759   -0.4495 C   0  0  0  0  0  0
   -2.4914   -0.7331    0.5648 C   0  0  0  0  0  0
   -1.5031   -1.6887   -0.1230 C   0  0  0  0  0  0
   -0.2768   -0.9885   -0.7566 C   0  0  2  0  0  0
    0.3221   -1.8491   -1.9013 C   0  0  0  0  0  0
    0.5031   -3.3445   -1.6710 C   0  0  0  0  0  0
    1.7409   -1.4028    0.6957 C   0  0  0  0  0  0
    2.5062   -0.9429    1.9419 C   0  0  0  0  0  0
    3.2897    0.3612    1.7918 C   0  0  0  0  0  0
    3.3351    0.8277    0.4508 O   0  0  0  0  0  0
    2.1611    1.5185   -0.0144 C   0  0  0  0  0  0
    2.2461    2.9835    0.4522 C   0  0  0  0  0  0
    2.2431    1.5002   -1.5431 C   0  0  0  0  0  0
    0.8151    0.8935    0.4718 C   0  0  0  0  0  0
   -2.9833    2.1527    1.2284 H   0  0  0  0  0  0
   -3.4134    2.7141   -0.4006 H   0  0  0  0  0  0
   -4.5569    2.9149    0.9420 H   0  0  0  0  0  0
   -4.8568    0.4613    1.1050 H   0  0  0  0  0  0
   -5.2614    1.0584   -0.5024 H   0  0  0  0  0  0
   -2.8677    0.4404   -1.2297 H   0  0  0  0  0  0
   -4.0108   -0.8678   -0.9456 H   0  0  0  0  0  0
   -1.9614    0.0185    1.1586 H   0  0  0  0  0  0
   -3.0989   -1.3130    1.2715 H   0  0  0  0  0  0
   -1.1591   -2.4272    0.6146 H   0  0  0  0  0  0
   -2.0508   -2.2532   -0.8867 H   0  0  0  0  0  0
   -0.6486   -0.0936   -1.2737 H   0  0  0  0  0  0
   -0.3471   -1.7446   -2.7683 H   0  0  0  0  0  0
    1.2771   -1.4235   -2.2265 H   0  0  0  0  0  0
    0.9115   -3.7969   -2.5813 H   0  0  0  0  0  0
    1.2013   -3.5670   -0.8660 H   0  0  0  0  0  0
   -0.4447   -3.8452   -1.4584 H   0  0  0  0  0  0
    1.3511   -2.3981    0.9334 H   0  0  0  0  0  0
    2.4498   -1.5186   -0.1306 H   0  0  0  0  0  0
    3.2139   -1.7349    2.2235 H   0  0  0  0  0  0
    1.8224   -0.8599    2.7962 H   0  0  0  0  0  0
    2.9048    1.1314    2.4691 H   0  0  0  0  0  0
    4.3257    0.1862    2.1016 H   0  0  0  0  0  0
    1.4654    3.6017   -0.0039 H   0  0  0  0  0  0
    3.2242    3.4162    0.2049 H   0  0  0  0  0  0
    2.1453    3.0674    1.5404 H   0  0  0  0  0  0
    1.3539    1.9411   -2.0045 H   0  0  0  0  0  0
    3.1230    2.0531   -1.8910 H   0  0  0  0  0  0
    2.3666    0.4829   -1.9223 H   0  0  0  0  0  0
   -0.0180    1.4495    0.0186 H   0  0  0  0  0  0
    0.6997    1.1043    1.5446 H   0  0  0  0  0  0
    0.5087   -0.5742    0.4730 N   0  3  1  0  0  0
   -0.1038   -0.7455    1.2791 H   0  0  0  0  0  0
  1  2  1  0  0  0
  1 17  1  0  0  0
  1 18  1  0  0  0
  1 19  1  0  0  0
  2  3  1  0  0  0
  2 20  1  0  0  0
  2 21  1  0  0  0
  3  4  1  0  0  0
  3 22  1  0  0  0
  3 23  1  0  0  0
  4  5  1  0  0  0
  4 24  1  0  0  0
  4 25  1  0  0  0
  5  6  1  0  0  0
  5 26  1  0  0  0
  5 27  1  0  0  0
  6  7  1  0  0  0
  6 28  1  0  0  0
  6 48  1  0  0  0
  7  8  1  0  0  0
  7 29  1  0  0  0
  7 30  1  0  0  0
  8 31  1  0  0  0
  8 32  1  0  0  0
  8 33  1  0  0  0
  9 10  1  0  0  0
  9 34  1  0  0  0
  9 35  1  0  0  0
  9 48  1  0  0  0
 10 11  1  0  0  0
 10 36  1  0  0  0
 10 37  1  0  0  0
 11 12  1  0  0  0
 11 38  1  0  0  0
 11 39  1  0  0  0
 12 13  1  0  0  0
 13 14  1  0  0  0
 13 15  1  0  0  0
 13 16  1  0  0  0
 14 40  1  0  0  0
 14 41  1  0  0  0
 14 42  1  0  0  0
 15 43  1  0  0  0
 15 44  1  0  0  0
 15 45  1  0  0  0
 16 46  1  0  0  0
 16 47  1  0  0  0
 16 48  1  0  0  0
 48 49  1  0  0  0
M  CHG  1  48   1
M  END
> <energy>
62.5913

> <chiral flag>
0

> <version>
0

> <i_ionizer_Ion_state_n>
1

> <i_ionizer_Tot_Q>
1

> <s_ionizer_Ion_centers>
48

> <s_ionizer_Ion_types>
N5

> <s_ionizer_Ion_ctrs_in>
9

> <r_ionizer_Ionization_penalty>
0.00148639

> <r_ionizer_Ionization_penalty_charging>
0.00148639

> <r_ionizer_Ionization_penalty_neutral>
0

$$$$
ZINC001258446193
                    3D
 Structure written by MMmdl.
 49 49  0  0  1  0            999 V2000
   -5.4828    1.1509    0.9680 C   0  0  0  0  0  0
   -3.9805    0.9242    1.0033 C   0  0  0  0  0  0
   -3.3957    0.8111   -0.4074 C   0  0  0  0  0  0
   -1.8876    0.5428   -0.3913 C   0  0  0  0  0  0
   -1.5340   -0.9235   -0.0895 C   0  0  0  0  0  0
   -0.0880   -1.1074    0.4443 C   0  0  1  0  0  0
    0.2774   -2.6004    0.6278 C   0  0  0  0  0  0
   -0.6192   -3.3198    1.6285 C   0  0  0  0  0  0
    1.1435   -0.9021   -1.6937 C   0  0  0  0  0  0
    1.8430    0.0693   -2.6460 C   0  0  0  0  0  0
    3.2138    0.5348   -2.1797 C   0  0  0  0  0  0
    3.1054    1.6023   -1.2566 O   0  0  0  0  0  0
    2.8079    1.2732    0.1055 C   0  0  0  0  0  0
    4.1271    1.3662    0.8883 C   0  0  0  0  0  0
    1.8745    2.3920    0.5913 C   0  0  0  0  0  0
    2.1592   -0.1191    0.3713 C   0  0  0  0  0  0
   -5.8811    1.2032    1.9856 H   0  0  0  0  0  0
   -5.7250    2.0884    0.4582 H   0  0  0  0  0  0
   -5.9897    0.3327    0.4470 H   0  0  0  0  0  0
   -3.5018    1.7547    1.5353 H   0  0  0  0  0  0
   -3.7780    0.0171    1.5810 H   0  0  0  0  0  0
   -3.9117    0.0281   -0.9786 H   0  0  0  0  0  0
   -3.5706    1.7590   -0.9347 H   0  0  0  0  0  0
   -1.4119    1.2116    0.3348 H   0  0  0  0  0  0
   -1.4818    0.7977   -1.3787 H   0  0  0  0  0  0
   -1.7003   -1.5312   -0.9876 H   0  0  0  0  0  0
   -2.2281   -1.3105    0.6648 H   0  0  0  0  0  0
   -0.1101   -0.6533    1.4452 H   0  0  0  0  0  0
    1.3089   -2.6851    0.9896 H   0  0  0  0  0  0
    0.2298   -3.1372   -0.3262 H   0  0  0  0  0  0
   -0.6690   -2.7706    2.5743 H   0  0  0  0  0  0
   -0.2211   -4.3187    1.8419 H   0  0  0  0  0  0
   -1.6366   -3.4428    1.2439 H   0  0  0  0  0  0
    0.1927   -1.1698   -2.1702 H   0  0  0  0  0  0
    1.7228   -1.8343   -1.6332 H   0  0  0  0  0  0
    1.9556   -0.4385   -3.6105 H   0  0  0  0  0  0
    1.1913    0.9374   -2.8075 H   0  0  0  0  0  0
    3.8415   -0.2760   -1.7940 H   0  0  0  0  0  0
    3.7410    0.9496   -3.0451 H   0  0  0  0  0  0
    3.9731    1.1991    1.9603 H   0  0  0  0  0  0
    4.5891    2.3495    0.7572 H   0  0  0  0  0  0
    4.8527    0.6345    0.5196 H   0  0  0  0  0  0
    1.6225    2.2804    1.6506 H   0  0  0  0  0  0
    2.3374    3.3759    0.4470 H   0  0  0  0  0  0
    0.9449    2.4074    0.0107 H   0  0  0  0  0  0
    1.9799   -0.1794    1.4534 H   0  0  0  0  0  0
    2.8744   -0.9282    0.1616 H   0  0  0  0  0  0
    0.8818   -0.2838   -0.3623 N   0  3  2  0  0  0
    0.4688    0.6443   -0.5116 H   0  0  0  0  0  0
  1  2  1  0  0  0
  1 17  1  0  0  0
  1 18  1  0  0  0
  1 19  1  0  0  0
  2  3  1  0  0  0
  2 20  1  0  0  0
  2 21  1  0  0  0
  3  4  1  0  0  0
  3 22  1  0  0  0
  3 23  1  0  0  0
  4  5  1  0  0  0
  4 24  1  0  0  0
  4 25  1  0  0  0
  5  6  1  0  0  0
  5 26  1  0  0  0
  5 27  1  0  0  0
  6  7  1  0  0  0
  6 28  1  0  0  0
  6 48  1  0  0  0
  7  8  1  0  0  0
  7 29  1  0  0  0
  7 30  1  0  0  0
  8 31  1  0  0  0
  8 32  1  0  0  0
  8 33  1  0  0  0
  9 10  1  0  0  0
  9 34  1  0  0  0
  9 35  1  0  0  0
  9 48  1  0  0  0
 10 11  1  0  0  0
 10 36  1  0  0  0
 10 37  1  0  0  0
 11 12  1  0  0  0
 11 38  1  0  0  0
 11 39  1  0  0  0
 12 13  1  0  0  0
 13 14  1  0  0  0
 13 15  1  0  0  0
 13 16  1  0  0  0
 14 40  1  0  0  0
 14 41  1  0  0  0
 14 42  1  0  0  0
 15 43  1  0  0  0
 15 44  1  0  0  0
 15 45  1  0  0  0
 16 46  1  0  0  0
 16 47  1  0  0  0
 16 48  1  0  0  0
 48 49  1  0  0  0
M  CHG  1  48   1
M  END
> <energy>
52.1253

> <chiral flag>
0

> <version>
0

> <i_ionizer_Ion_state_n>
1

> <i_ionizer_Tot_Q>
1

> <s_ionizer_Ion_centers>
48

> <s_ionizer_Ion_types>
N5

> <s_ionizer_Ion_ctrs_in>
9

> <r_ionizer_Ionization_penalty>
0.00148639

> <r_ionizer_Ionization_penalty_charging>
0.00148639

> <r_ionizer_Ionization_penalty_neutral>
0

$$$$
ZINC001258446380
                    3D
 Structure written by MMmdl.
 49 49  0  0  1  0            999 V2000
    1.1233   -4.6253    2.4234 C   0  0  0  0  0  0
    1.9813   -3.6787    1.5943 C   0  0  0  0  0  0
    1.1208   -2.8945    0.6039 C   0  0  0  0  0  0
    1.8946   -1.8452   -0.1995 C   0  0  0  0  0  0
    2.4398   -0.6946    0.6584 C   0  0  0  0  0  0
    2.1128    0.7409    0.1789 C   0  0  1  0  0  0
    2.5247    1.0381   -1.2823 C   0  0  0  0  0  0
    4.0281    0.9428   -1.5220 C   0  0  0  0  0  0
    0.4779    2.4717    0.8265 C   0  0  0  0  0  0
   -1.0368    2.5665    0.8376 C   0  0  0  0  0  0
   -1.4240    1.7276   -0.3688 C   0  0  2  0  0  0
   -2.7343    1.1760   -0.2819 O   0  0  0  0  0  0
   -3.7635    2.1475   -0.4589 C   0  0  0  0  0  0
   -5.1114    1.4408   -0.5742 C   0  0  0  0  0  0
   -5.2314    0.6346   -1.8613 C   0  0  0  0  0  0
   -0.3552    0.6209   -0.3894 C   0  0  0  0  0  0
    0.3813   -4.0705    3.0070 H   0  0  0  0  0  0
    1.7490   -5.1966    3.1189 H   0  0  0  0  0  0
    0.5909   -5.3357    1.7818 H   0  0  0  0  0  0
    2.7373   -4.2599    1.0531 H   0  0  0  0  0  0
    2.5147   -3.0048    2.2749 H   0  0  0  0  0  0
    0.6658   -3.5991   -0.1033 H   0  0  0  0  0  0
    0.2937   -2.4069    1.1324 H   0  0  0  0  0  0
    2.7267   -2.3352   -0.7164 H   0  0  0  0  0  0
    1.2334   -1.4763   -0.9868 H   0  0  0  0  0  0
    3.5321   -0.8025    0.7245 H   0  0  0  0  0  0
    2.0974   -0.7926    1.6965 H   0  0  0  0  0  0
    2.7369    1.3852    0.8153 H   0  0  0  0  0  0
    2.2060    2.0516   -1.5568 H   0  0  0  0  0  0
    2.0306    0.3582   -1.9824 H   0  0  0  0  0  0
    4.4022   -0.0655   -1.3287 H   0  0  0  0  0  0
    4.5749    1.6488   -0.8905 H   0  0  0  0  0  0
    4.2540    1.1789   -2.5682 H   0  0  0  0  0  0
    0.9008    2.7504    1.7978 H   0  0  0  0  0  0
    0.8933    3.1401    0.0626 H   0  0  0  0  0  0
   -1.3839    3.5999    0.7499 H   0  0  0  0  0  0
   -1.4567    2.1488    1.7596 H   0  0  0  0  0  0
   -1.3275    2.3201   -1.2872 H   0  0  0  0  0  0
   -3.7756    2.8161    0.4073 H   0  0  0  0  0  0
   -3.5703    2.7369   -1.3607 H   0  0  0  0  0  0
   -5.2432    0.7611    0.2730 H   0  0  0  0  0  0
   -5.9171    2.1833   -0.5401 H   0  0  0  0  0  0
   -4.4344   -0.1106   -1.9423 H   0  0  0  0  0  0
   -6.1907    0.1085   -1.8895 H   0  0  0  0  0  0
   -5.1758    1.2880   -2.7370 H   0  0  0  0  0  0
   -0.7702   -0.3314   -0.0369 H   0  0  0  0  0  0
   -0.0379    0.4774   -1.4256 H   0  0  0  0  0  0
    0.6741    1.0479    0.5973 N   0  3  1  0  0  0
    0.4991    0.5472    1.4765 H   0  0  0  0  0  0
  1  2  1  0  0  0
  1 17  1  0  0  0
  1 18  1  0  0  0
  1 19  1  0  0  0
  2  3  1  0  0  0
  2 20  1  0  0  0
  2 21  1  0  0  0
  3  4  1  0  0  0
  3 22  1  0  0  0
  3 23  1  0  0  0
  4  5  1  0  0  0
  4 24  1  0  0  0
  4 25  1  0  0  0
  5  6  1  0  0  0
  5 26  1  0  0  0
  5 27  1  0  0  0
  6  7  1  0  0  0
  6 28  1  0  0  0
  6 48  1  0  0  0
  7  8  1  0  0  0
  7 29  1  0  0  0
  7 30  1  0  0  0
  8 31  1  0  0  0
  8 32  1  0  0  0
  8 33  1  0  0  0
  9 10  1  0  0  0
  9 34  1  0  0  0
  9 35  1  0  0  0
  9 48  1  0  0  0
 10 11  1  0  0  0
 10 36  1  0  0  0
 10 37  1  0  0  0
 11 12  1  0  0  0
 11 16  1  0  0  0
 11 38  1  0  0  0
 12 13  1  0  0  0
 13 14  1  0  0  0
 13 39  1  0  0  0
 13 40  1  0  0  0
 14 15  1  0  0  0
 14 41  1  0  0  0
 14 42  1  0  0  0
 15 43  1  0  0  0
 15 44  1  0  0  0
 15 45  1  0  0  0
 16 46  1  0  0  0
 16 47  1  0  0  0
 16 48  1  0  0  0
 48 49  1  0  0  0
M  CHG  1  48   1
M  END
> <energy>
39.4411

> <chiral flag>
0

> <version>
0

> <i_ionizer_Ion_state_n>
1

> <i_ionizer_Tot_Q>
1

> <s_ionizer_Ion_centers>
48

> <s_ionizer_Ion_types>
N5

> <s_ionizer_Ion_ctrs_in>
9

> <r_ionizer_Ionization_penalty>
0.00148639

> <r_ionizer_Ionization_penalty_charging>
0.00148639

> <r_ionizer_Ionization_penalty_neutral>
0

$$$$
ZINC001258446381
                    3D
 Structure written by MMmdl.
 49 49  0  0  1  0            999 V2000
   -3.2985    0.8990   -0.2534 C   0  0  0  0  0  0
   -3.2404   -0.6221   -0.2804 C   0  0  0  0  0  0
   -2.8409   -1.2231    1.0701 C   0  0  0  0  0  0
   -1.3514   -1.0968    1.4213 C   0  0  0  0  0  0
   -0.4968   -2.2376    0.8532 C   0  0  0  0  0  0
    0.2239   -1.9482   -0.4872 C   0  0  2  0  0  0
    0.7351   -3.2943   -1.0633 C   0  0  0  0  0  0
    1.3406   -3.1779   -2.4562 C   0  0  0  0  0  0
    2.0958   -0.8722    0.8048 C   0  0  0  0  0  0
    3.0522    0.2765    0.5232 C   0  0  0  0  0  0
    2.4321    1.0382   -0.6505 C   0  0  2  0  0  0
    2.3178    2.4402   -0.4177 O   0  0  0  0  0  0
    1.4314    2.8521    0.6196 C   0  0  0  0  0  0
    0.3244    3.6916   -0.0065 C   0  0  0  0  0  0
   -0.6454    4.2295    1.0276 C   0  0  0  0  0  0
    1.1269    0.2997   -0.9827 C   0  0  0  0  0  0
   -3.6446    1.2805   -1.2193 H   0  0  0  0  0  0
   -2.3177    1.3343   -0.0518 H   0  0  0  0  0  0
   -3.9979    1.2475    0.5136 H   0  0  0  0  0  0
   -2.5655   -0.9531   -1.0745 H   0  0  0  0  0  0
   -4.2364   -0.9959   -0.5440 H   0  0  0  0  0  0
   -3.4318   -0.7357    1.8572 H   0  0  0  0  0  0
   -3.1326   -2.2829    1.0871 H   0  0  0  0  0  0
   -1.2844   -1.1607    2.5149 H   0  0  0  0  0  0
   -0.9582   -0.1097    1.1624 H   0  0  0  0  0  0
   -1.1205   -3.1311    0.7381 H   0  0  0  0  0  0
    0.2484   -2.5219    1.6050 H   0  0  0  0  0  0
   -0.5143   -1.5712   -1.2099 H   0  0  0  0  0  0
    1.4737   -3.7422   -0.3873 H   0  0  0  0  0  0
   -0.1055   -3.9966   -1.1180 H   0  0  0  0  0  0
    1.5170   -4.1709   -2.8757 H   0  0  0  0  0  0
    2.2969   -2.6463   -2.4337 H   0  0  0  0  0  0
    0.6683   -2.6447   -3.1371 H   0  0  0  0  0  0
    2.6365   -1.7818    1.0823 H   0  0  0  0  0  0
    1.4453   -0.5810    1.6375 H   0  0  0  0  0  0
    4.0328   -0.1151    0.2272 H   0  0  0  0  0  0
    3.2024    0.8941    1.4114 H   0  0  0  0  0  0
    3.1122    0.9334   -1.5052 H   0  0  0  0  0  0
    2.0128    3.4632    1.3175 H   0  0  0  0  0  0
    1.0163    2.0101    1.1849 H   0  0  0  0  0  0
   -0.2243    3.0905   -0.7417 H   0  0  0  0  0  0
    0.7674    4.5210   -0.5728 H   0  0  0  0  0  0
   -1.3558    4.9134    0.5536 H   0  0  0  0  0  0
   -1.2102    3.4114    1.4871 H   0  0  0  0  0  0
   -0.1244    4.7786    1.8192 H   0  0  0  0  0  0
    0.9728    0.2667   -2.0670 H   0  0  0  0  0  0
    0.2484    0.7755   -0.5400 H   0  0  0  0  0  0
    1.4459   -1.0365   -0.5056 N   0  3  2  0  0  0
    2.1269   -1.4576   -1.1483 H   0  0  0  0  0  0
  1  2  1  0  0  0
  1 17  1  0  0  0
  1 18  1  0  0  0
  1 19  1  0  0  0
  2  3  1  0  0  0
  2 20  1  0  0  0
  2 21  1  0  0  0
  3  4  1  0  0  0
  3 22  1  0  0  0
  3 23  1  0  0  0
  4  5  1  0  0  0
  4 24  1  0  0  0
  4 25  1  0  0  0
  5  6  1  0  0  0
  5 26  1  0  0  0
  5 27  1  0  0  0
  6  7  1  0  0  0
  6 28  1  0  0  0
  6 48  1  0  0  0
  7  8  1  0  0  0
  7 29  1  0  0  0
  7 30  1  0  0  0
  8 31  1  0  0  0
  8 32  1  0  0  0
  8 33  1  0  0  0
  9 10  1  0  0  0
  9 34  1  0  0  0
  9 35  1  0  0  0
  9 48  1  0  0  0
 10 11  1  0  0  0
 10 36  1  0  0  0
 10 37  1  0  0  0
 11 12  1  0  0  0
 11 16  1  0  0  0
 11 38  1  0  0  0
 12 13  1  0  0  0
 13 14  1  0  0  0
 13 39  1  0  0  0
 13 40  1  0  0  0
 14 15  1  0  0  0
 14 41  1  0  0  0
 14 42  1  0  0  0
 15 43  1  0  0  0
 15 44  1  0  0  0
 15 45  1  0  0  0
 16 46  1  0  0  0
 16 47  1  0  0  0
 16 48  1  0  0  0
 48 49  1  0  0  0
M  CHG  1  48   1
M  END
> <energy>
43.8925

> <chiral flag>
0

> <version>
0

> <i_ionizer_Ion_state_n>
1

> <i_ionizer_Tot_Q>
1

> <s_ionizer_Ion_centers>
48

> <s_ionizer_Ion_types>
N5

> <s_ionizer_Ion_ctrs_in>
9

> <r_ionizer_Ionization_penalty>
0.00148639

> <r_ionizer_Ionization_penalty_charging>
0.00148639

> <r_ionizer_Ionization_penalty_neutral>
0

$$$$
ZINC001258446384
                    3D
 Structure written by MMmdl.
 49 49  0  0  1  0            999 V2000
   -4.2405   -2.9825   -0.0944 C   0  0  0  0  0  0
   -3.6901   -1.5710   -0.2584 C   0  0  0  0  0  0
   -2.8880   -1.1461    0.9698 C   0  0  0  0  0  0
   -2.3426    0.2854    0.9052 C   0  0  0  0  0  0
   -1.3189    0.5082   -0.2125 C   0  0  0  0  0  0
   -0.4136    1.7687   -0.0382 C   0  0  1  0  0  0
   -1.2558    3.0702    0.0008 C   0  0  0  0  0  0
   -2.0049    3.3443   -1.2968 C   0  0  0  0  0  0
    1.6498    2.6266    0.9765 C   0  0  0  0  0  0
    2.7595    1.7490    0.3808 C   0  0  0  0  0  0
    2.2288    0.3230    0.4724 C   0  0  1  0  0  0
    3.2323   -0.5734    0.9338 O   0  0  0  0  0  0
    3.8692   -1.3034   -0.1162 C   0  0  0  0  0  0
    3.0599   -2.5536   -0.4573 C   0  0  0  0  0  0
    3.6206   -3.2927   -1.6609 C   0  0  0  0  0  0
    1.0960    0.4632    1.4849 C   0  0  0  0  0  0
   -4.8481   -3.2593   -0.9624 H   0  0  0  0  0  0
   -4.8735   -3.0593    0.7966 H   0  0  0  0  0  0
   -3.4259   -3.7086    0.0014 H   0  0  0  0  0  0
   -3.0623   -1.5436   -1.1559 H   0  0  0  0  0  0
   -4.5276   -0.8828   -0.4184 H   0  0  0  0  0  0
   -3.5319   -1.2225    1.8556 H   0  0  0  0  0  0
   -2.0604   -1.8473    1.1282 H   0  0  0  0  0  0
   -1.8872    0.5056    1.8786 H   0  0  0  0  0  0
   -3.1789    0.9834    0.7846 H   0  0  0  0  0  0
   -0.6838   -0.3787   -0.3208 H   0  0  0  0  0  0
   -1.8471    0.5761   -1.1709 H   0  0  0  0  0  0
    0.2201    1.8040   -0.9358 H   0  0  0  0  0  0
   -1.9674    3.0446    0.8343 H   0  0  0  0  0  0
   -0.6132    3.9388    0.1855 H   0  0  0  0  0  0
   -1.3188    3.3412   -2.1518 H   0  0  0  0  0  0
   -2.7896    2.6050   -1.4745 H   0  0  0  0  0  0
   -2.4789    4.3315   -1.2510 H   0  0  0  0  0  0
    1.4747    3.5179    0.3669 H   0  0  0  0  0  0
    1.9695    2.9965    1.9608 H   0  0  0  0  0  0
    2.9449    2.0146   -0.6645 H   0  0  0  0  0  0
    3.6958    1.8832    0.9330 H   0  0  0  0  0  0
    1.8190    0.0074   -0.4958 H   0  0  0  0  0  0
    4.8558   -1.6038    0.2508 H   0  0  0  0  0  0
    4.0289   -0.6637   -0.9920 H   0  0  0  0  0  0
    3.0503   -3.2227    0.4142 H   0  0  0  0  0  0
    2.0113   -2.2952   -0.6478 H   0  0  0  0  0  0
    3.0485   -4.2080   -1.8413 H   0  0  0  0  0  0
    4.6691   -3.5695   -1.5096 H   0  0  0  0  0  0
    3.5545   -2.6730   -2.5615 H   0  0  0  0  0  0
    1.5070    0.5105    2.5046 H   0  0  0  0  0  0
    0.4215   -0.3959    1.5002 H   0  0  0  0  0  0
    0.5057    1.7732    1.1917 N   0  3  2  0  0  0
   -0.0356    2.0992    2.0010 H   0  0  0  0  0  0
  1  2  1  0  0  0
  1 17  1  0  0  0
  1 18  1  0  0  0
  1 19  1  0  0  0
  2  3  1  0  0  0
  2 20  1  0  0  0
  2 21  1  0  0  0
  3  4  1  0  0  0
  3 22  1  0  0  0
  3 23  1  0  0  0
  4  5  1  0  0  0
  4 24  1  0  0  0
  4 25  1  0  0  0
  5  6  1  0  0  0
  5 26  1  0  0  0
  5 27  1  0  0  0
  6  7  1  0  0  0
  6 28  1  0  0  0
  6 48  1  0  0  0
  7  8  1  0  0  0
  7 29  1  0  0  0
  7 30  1  0  0  0
  8 31  1  0  0  0
  8 32  1  0  0  0
  8 33  1  0  0  0
  9 10  1  0  0  0
  9 34  1  0  0  0
  9 35  1  0  0  0
  9 48  1  0  0  0
 10 11  1  0  0  0
 10 36  1  0  0  0
 10 37  1  0  0  0
 11 12  1  0  0  0
 11 16  1  0  0  0
 11 38  1  0  0  0
 12 13  1  0  0  0
 13 14  1  0  0  0
 13 39  1  0  0  0
 13 40  1  0  0  0
 14 15  1  0  0  0
 14 41  1  0  0  0
 14 42  1  0  0  0
 15 43  1  0  0  0
 15 44  1  0  0  0
 15 45  1  0  0  0
 16 46  1  0  0  0
 16 47  1  0  0  0
 16 48  1  0  0  0
 48 49  1  0  0  0
M  CHG  1  48   1
M  END
> <energy>
40.1484

> <chiral flag>
0

> <version>
0

> <i_ionizer_Ion_state_n>
1

> <i_ionizer_Tot_Q>
1

> <s_ionizer_Ion_centers>
48

> <s_ionizer_Ion_types>
N5

> <s_ionizer_Ion_ctrs_in>
9

> <r_ionizer_Ionization_penalty>
0.00148639

> <r_ionizer_Ionization_penalty_charging>
0.00148639

> <r_ionizer_Ionization_penalty_neutral>
0

$$$$
ZINC001258446386
                    3D
 Structure written by MMmdl.
 49 49  0  0  1  0            999 V2000
   -2.5837   -1.1930    3.2839 C   0  0  0  0  0  0
   -2.6165    0.1726    2.6153 C   0  0  0  0  0  0
   -1.3630    0.9881    2.9422 C   0  0  0  0  0  0
   -1.3188    2.3495    2.2367 C   0  0  0  0  0  0
   -1.1111    2.2743    0.7147 C   0  0  0  0  0  0
    0.3331    1.8670    0.3244 C   0  0  2  0  0  0
    1.1895    3.1285    0.0668 C   0  0  0  0  0  0
    2.6749    2.8127   -0.0573 C   0  0  0  0  0  0
   -0.2185    1.2998   -2.0552 C   0  0  0  0  0  0
   -0.4068   -0.0247   -2.8052 C   0  0  0  0  0  0
    0.1386   -1.1090   -1.8720 C   0  0  1  0  0  0
    1.4643   -1.4287   -2.3032 O   0  0  0  0  0  0
    2.1827   -2.3846   -1.5324 C   0  0  0  0  0  0
    2.0170   -3.8124   -2.0495 C   0  0  0  0  0  0
    0.6913   -4.4599   -1.6791 C   0  0  0  0  0  0
    0.0496   -0.4355   -0.5039 C   0  0  0  0  0  0
   -2.5901   -1.0966    4.3728 H   0  0  0  0  0  0
   -3.4616   -1.7760    2.9907 H   0  0  0  0  0  0
   -1.6927   -1.7537    2.9863 H   0  0  0  0  0  0
   -3.5096    0.7161    2.9451 H   0  0  0  0  0  0
   -2.7104    0.0240    1.5356 H   0  0  0  0  0  0
   -0.4714    0.4027    2.7047 H   0  0  0  0  0  0
   -1.3310    1.1598    4.0226 H   0  0  0  0  0  0
   -0.5142    2.9505    2.6780 H   0  0  0  0  0  0
   -2.2556    2.8813    2.4390 H   0  0  0  0  0  0
   -1.3291    3.2613    0.2847 H   0  0  0  0  0  0
   -1.8564    1.5974    0.2859 H   0  0  0  0  0  0
    0.7975    1.3653    1.1803 H   0  0  0  0  0  0
    0.8501    3.6495   -0.8373 H   0  0  0  0  0  0
    1.0602    3.8312    0.8998 H   0  0  0  0  0  0
    2.8830    2.2104   -0.9474 H   0  0  0  0  0  0
    3.2504    3.7393   -0.1357 H   0  0  0  0  0  0
    3.0319    2.2724    0.8245 H   0  0  0  0  0  0
    0.3949    1.9912   -2.6403 H   0  0  0  0  0  0
   -1.2000    1.7605   -1.9052 H   0  0  0  0  0  0
    0.1001   -0.0164   -3.7775 H   0  0  0  0  0  0
   -1.4793   -0.1867   -2.9716 H   0  0  0  0  0  0
   -0.4877   -2.0005   -1.9275 H   0  0  0  0  0  0
    3.2394   -2.1166   -1.6532 H   0  0  0  0  0  0
    1.9707   -2.3218   -0.4613 H   0  0  0  0  0  0
    2.8223   -4.4218   -1.6207 H   0  0  0  0  0  0
    2.1323   -3.8321   -3.1390 H   0  0  0  0  0  0
    0.4619   -4.3174   -0.6177 H   0  0  0  0  0  0
    0.7400   -5.5356   -1.8739 H   0  0  0  0  0  0
   -0.1341   -4.0623   -2.2752 H   0  0  0  0  0  0
   -0.9819   -0.4897   -0.1378 H   0  0  0  0  0  0
    0.7093   -0.8722    0.2483 H   0  0  0  0  0  0
    0.5073    0.9038   -0.8373 N   0  3  2  0  0  0
    1.5097    0.8656   -1.0562 H   0  0  0  0  0  0
  1  2  1  0  0  0
  1 17  1  0  0  0
  1 18  1  0  0  0
  1 19  1  0  0  0
  2  3  1  0  0  0
  2 20  1  0  0  0
  2 21  1  0  0  0
  3  4  1  0  0  0
  3 22  1  0  0  0
  3 23  1  0  0  0
  4  5  1  0  0  0
  4 24  1  0  0  0
  4 25  1  0  0  0
  5  6  1  0  0  0
  5 26  1  0  0  0
  5 27  1  0  0  0
  6  7  1  0  0  0
  6 28  1  0  0  0
  6 48  1  0  0  0
  7  8  1  0  0  0
  7 29  1  0  0  0
  7 30  1  0  0  0
  8 31  1  0  0  0
  8 32  1  0  0  0
  8 33  1  0  0  0
  9 10  1  0  0  0
  9 34  1  0  0  0
  9 35  1  0  0  0
  9 48  1  0  0  0
 10 11  1  0  0  0
 10 36  1  0  0  0
 10 37  1  0  0  0
 11 12  1  0  0  0
 11 16  1  0  0  0
 11 38  1  0  0  0
 12 13  1  0  0  0
 13 14  1  0  0  0
 13 39  1  0  0  0
 13 40  1  0  0  0
 14 15  1  0  0  0
 14 41  1  0  0  0
 14 42  1  0  0  0
 15 43  1  0  0  0
 15 44  1  0  0  0
 15 45  1  0  0  0
 16 46  1  0  0  0
 16 47  1  0  0  0
 16 48  1  0  0  0
 48 49  1  0  0  0
M  CHG  1  48   1
M  END
> <energy>
43.1216

> <chiral flag>
0

> <version>
0

> <i_ionizer_Ion_state_n>
1

> <i_ionizer_Tot_Q>
1

> <s_ionizer_Ion_centers>
48

> <s_ionizer_Ion_types>
N5

> <s_ionizer_Ion_ctrs_in>
9

> <r_ionizer_Ionization_penalty>
0.00148639

> <r_ionizer_Ionization_penalty_charging>
0.00148639

> <r_ionizer_Ionization_penalty_neutral>
0

$$$$
ZINC001258446605
                    3D
 Structure written by MMmdl.
 42 43  0  0  1  0            999 V2000
   -5.0219    0.5968    0.5750 C   0  0  0  0  0  0
   -3.5722    0.4520    0.1327 C   0  0  0  0  0  0
   -2.8855    1.8176    0.0377 C   0  0  0  0  0  0
   -1.3707    1.7086   -0.1636 C   0  0  0  0  0  0
   -0.6295    1.3804    1.1368 C   0  0  0  0  0  0
    0.8900    1.0651    1.0462 C   0  0  2  0  0  0
    1.7077    2.1242    0.2651 C   0  0  0  0  0  0
    1.8258    1.9494   -1.2411 C   0  0  0  0  0  0
    0.5570   -1.0137   -0.3864 C   0  0  0  0  0  0
    1.4170   -2.2226   -0.5885 C   0  0  0  0  0  0
    1.2256   -3.3197   -1.4050 C   0  0  0  0  0  0
    2.2089   -4.2996   -1.3578 C   0  0  0  0  0  0
    3.3242   -4.2382   -0.5799 N   0  0  0  0  0  0
    3.4783   -3.1364    0.1968 C   0  0  0  0  0  0
    2.5512   -2.1216    0.2084 C   0  0  0  0  0  0
    2.5319   -0.8338    0.9622 C   0  0  0  0  0  0
   -5.5104   -0.3834    0.6111 H   0  0  0  0  0  0
   -5.0750    1.0430    1.5746 H   0  0  0  0  0  0
   -5.5833    1.2341   -0.1169 H   0  0  0  0  0  0
   -3.5384   -0.0389   -0.8479 H   0  0  0  0  0  0
   -3.0547   -0.2066    0.8388 H   0  0  0  0  0  0
   -3.1014    2.4184    0.9293 H   0  0  0  0  0  0
   -3.3154    2.3575   -0.8162 H   0  0  0  0  0  0
   -1.1688    0.9693   -0.9392 H   0  0  0  0  0  0
   -1.0154    2.6753   -0.5378 H   0  0  0  0  0  0
   -0.7496    2.2421    1.8088 H   0  0  0  0  0  0
   -1.1249    0.5501    1.6563 H   0  0  0  0  0  0
    1.2212    1.1960    2.0888 H   0  0  0  0  0  0
    1.2902    3.1178    0.4725 H   0  0  0  0  0  0
    2.7284    2.1435    0.6699 H   0  0  0  0  0  0
    2.3976    1.0523   -1.4923 H   0  0  0  0  0  0
    2.3584    2.8020   -1.6766 H   0  0  0  0  0  0
    0.8550    1.8881   -1.7339 H   0  0  0  0  0  0
    0.5841   -0.4150   -1.2983 H   0  0  0  0  0  0
   -0.4710   -1.3114   -0.1601 H   0  0  0  0  0  0
    0.3562   -3.4177   -2.0414 H   0  0  0  0  0  0
    2.1229   -5.1961   -1.9686 H   0  0  0  0  0  0
    4.3746   -3.1154    0.8073 H   0  0  0  0  0  0
    2.7370   -1.0116    2.0235 H   0  0  0  0  0  0
    3.2860   -0.1605    0.5391 H   0  0  0  0  0  0
    1.1074   -0.4446    0.8741 N   0  3  1  0  0  0
    0.6138   -0.8977    1.6521 H   0  0  0  0  0  0
  1  2  1  0  0  0
  1 17  1  0  0  0
  1 18  1  0  0  0
  1 19  1  0  0  0
  2  3  1  0  0  0
  2 20  1  0  0  0
  2 21  1  0  0  0
  3  4  1  0  0  0
  3 22  1  0  0  0
  3 23  1  0  0  0
  4  5  1  0  0  0
  4 24  1  0  0  0
  4 25  1  0  0  0
  5  6  1  0  0  0
  5 26  1  0  0  0
  5 27  1  0  0  0
  6  7  1  0  0  0
  6 28  1  0  0  0
  6 41  1  0  0  0
  7  8  1  0  0  0
  7 29  1  0  0  0
  7 30  1  0  0  0
  8 31  1  0  0  0
  8 32  1  0  0  0
  8 33  1  0  0  0
  9 10  1  0  0  0
  9 34  1  0  0  0
  9 35  1  0  0  0
  9 41  1  0  0  0
 10 11  2  0  0  0
 10 15  1  0  0  0
 11 12  1  0  0  0
 11 36  1  0  0  0
 12 13  2  0  0  0
 12 37  1  0  0  0
 13 14  1  0  0  0
 14 15  2  0  0  0
 14 38  1  0  0  0
 15 16  1  0  0  0
 16 39  1  0  0  0
 16 40  1  0  0  0
 16 41  1  0  0  0
 41 42  1  0  0  0
M  CHG  1  41   1
M  END
> <energy>
37.5585

> <chiral flag>
0

> <version>
0

> <i_ionizer_Ion_state_n>
1

> <i_ionizer_Tot_Q>
1

> <s_ionizer_Ion_centers>
41

> <s_ionizer_Ion_types>
N5

> <s_ionizer_Ion_ctrs_in>
9

> <r_ionizer_Ionization_penalty>
0.00889878

> <r_ionizer_Ionization_penalty_charging>
0.00148639

> <r_ionizer_Ionization_penalty_neutral>
0.00741239

$$$$
ZINC001258446606
                    3D
 Structure written by MMmdl.
 42 43  0  0  1  0            999 V2000
   -4.0597   -0.6012    0.0843 C   0  0  0  0  0  0
   -3.0358   -1.7237    0.0875 C   0  0  0  0  0  0
   -1.7770   -1.3051   -0.6608 C   0  0  0  0  0  0
   -0.6547   -2.3315   -0.5005 C   0  0  0  0  0  0
    0.7010   -1.7590   -0.9354 C   0  0  0  0  0  0
    1.2570   -0.7730    0.1437 C   0  0  1  0  0  0
    2.2953   -1.5636    0.9953 C   0  0  0  0  0  0
    3.6374   -1.8008    0.3120 C   0  0  0  0  0  0
    0.9593    1.2354   -1.3233 C   0  0  0  0  0  0
    0.2045    2.2481   -0.5279 C   0  0  0  0  0  0
   -0.8997    3.0023   -0.8621 C   0  0  0  0  0  0
   -1.3584    3.8844    0.1045 C   0  0  0  0  0  0
   -0.7855    4.0473    1.3292 N   0  0  0  0  0  0
    0.3046    3.2927    1.6070 C   0  0  0  0  0  0
    0.8159    2.3914    0.7073 C   0  0  0  0  0  0
    1.9970    1.4843    0.7765 C   0  0  0  0  0  0
   -3.6448    0.2985    0.5519 H   0  0  0  0  0  0
   -4.9483   -0.8997    0.6500 H   0  0  0  0  0  0
   -4.3657   -0.3482   -0.9362 H   0  0  0  0  0  0
   -3.4611   -2.6232   -0.3704 H   0  0  0  0  0  0
   -2.7845   -1.9614    1.1266 H   0  0  0  0  0  0
   -1.9950   -1.1732   -1.7275 H   0  0  0  0  0  0
   -1.4591   -0.3274   -0.2899 H   0  0  0  0  0  0
   -0.5974   -2.6748    0.5404 H   0  0  0  0  0  0
   -0.8901   -3.2142   -1.1060 H   0  0  0  0  0  0
    1.3842   -2.6027   -1.0784 H   0  0  0  0  0  0
    0.6002   -1.3186   -1.9283 H   0  0  0  0  0  0
    0.4338   -0.5188    0.8248 H   0  0  0  0  0  0
    2.4792   -1.0616    1.9506 H   0  0  0  0  0  0
    1.8619   -2.5357    1.2661 H   0  0  0  0  0  0
    4.2409   -2.4876    0.9133 H   0  0  0  0  0  0
    3.5257   -2.2475   -0.6790 H   0  0  0  0  0  0
    4.1998   -0.8675    0.2047 H   0  0  0  0  0  0
    1.6069    1.7604   -2.0367 H   0  0  0  0  0  0
    0.2741    0.6181   -1.9028 H   0  0  0  0  0  0
   -1.3930    2.9135   -1.8232 H   0  0  0  0  0  0
   -2.2257    4.5120   -0.0810 H   0  0  0  0  0  0
    0.7411    3.4410    2.5884 H   0  0  0  0  0  0
    2.9064    2.0723    0.6047 H   0  0  0  0  0  0
    2.0729    1.0152    1.7608 H   0  0  0  0  0  0
    1.8451    0.5495   -0.3508 N   0  3  1  0  0  0
    2.7575    0.3656   -0.7843 H   0  0  0  0  0  0
  1  2  1  0  0  0
  1 17  1  0  0  0
  1 18  1  0  0  0
  1 19  1  0  0  0
  2  3  1  0  0  0
  2 20  1  0  0  0
  2 21  1  0  0  0
  3  4  1  0  0  0
  3 22  1  0  0  0
  3 23  1  0  0  0
  4  5  1  0  0  0
  4 24  1  0  0  0
  4 25  1  0  0  0
  5  6  1  0  0  0
  5 26  1  0  0  0
  5 27  1  0  0  0
  6  7  1  0  0  0
  6 28  1  0  0  0
  6 41  1  0  0  0
  7  8  1  0  0  0
  7 29  1  0  0  0
  7 30  1  0  0  0
  8 31  1  0  0  0
  8 32  1  0  0  0
  8 33  1  0  0  0
  9 10  1  0  0  0
  9 34  1  0  0  0
  9 35  1  0  0  0
  9 41  1  0  0  0
 10 11  2  0  0  0
 10 15  1  0  0  0
 11 12  1  0  0  0
 11 36  1  0  0  0
 12 13  2  0  0  0
 12 37  1  0  0  0
 13 14  1  0  0  0
 14 15  2  0  0  0
 14 38  1  0  0  0
 15 16  1  0  0  0
 16 39  1  0  0  0
 16 40  1  0  0  0
 16 41  1  0  0  0
 41 42  1  0  0  0
M  CHG  1  41   1
M  END
> <energy>
38.7911

> <chiral flag>
0

> <version>
0

> <i_ionizer_Ion_state_n>
1

> <i_ionizer_Tot_Q>
1

> <s_ionizer_Ion_centers>
41

> <s_ionizer_Ion_types>
N5

> <s_ionizer_Ion_ctrs_in>
9

> <r_ionizer_Ionization_penalty>
0.00889878

> <r_ionizer_Ionization_penalty_charging>
0.00148639

> <r_ionizer_Ionization_penalty_neutral>
0.00741239

$$$$
ZINC001258446613
                    3D
 Structure written by MMmdl.
 42 42  0  0  1  0            999 V2000
   -3.9914    0.7794    1.0390 C   0  0  0  0  0  0
   -4.1780    0.0267   -0.2705 C   0  0  0  0  0  0
   -3.2395    0.4795   -1.3963 C   0  0  0  0  0  0
   -1.7620    0.6491   -1.0102 C   0  0  0  0  0  0
   -1.0898   -0.6477   -0.5480 C   0  0  0  0  0  0
    0.2329   -0.4801    0.2642 C   0  0  1  0  0  0
    0.5503   -1.8351    0.9673 C   0  0  0  0  0  0
    0.5548   -3.1048    0.1176 C   0  0  0  0  0  0
    2.5882   -0.4519   -0.7100 C   0  0  0  0  0  0
    3.5856   -0.1040    0.3984 C   0  0  0  0  0  0
    3.7451    1.4009    0.5139 C   0  0  0  0  0  0
    2.3860    2.0501    0.7120 C   0  0  1  0  0  0
    2.5463    3.4032    0.6502 F   0  0  0  0  0  0
    1.3863    1.6181   -0.3766 C   0  0  0  0  0  0
   -4.7876    0.5167    1.7412 H   0  0  0  0  0  0
   -4.0178    1.8579    0.8754 H   0  0  0  0  0  0
   -3.0386    0.5243    1.5128 H   0  0  0  0  0  0
   -5.2127    0.1675   -0.6106 H   0  0  0  0  0  0
   -4.0631   -1.0492   -0.0903 H   0  0  0  0  0  0
   -3.6000    1.4458   -1.7700 H   0  0  0  0  0  0
   -3.3319   -0.2217   -2.2343 H   0  0  0  0  0  0
   -1.2253    1.0374   -1.8876 H   0  0  0  0  0  0
   -1.6836    1.4183   -0.2353 H   0  0  0  0  0  0
   -1.7917   -1.2154    0.0720 H   0  0  0  0  0  0
   -0.9025   -1.2623   -1.4357 H   0  0  0  0  0  0
    0.0159    0.2007    1.1010 H   0  0  0  0  0  0
   -0.2179   -1.9827    1.7422 H   0  0  0  0  0  0
    1.4905   -1.7662    1.5224 H   0  0  0  0  0  0
    1.4258   -3.1700   -0.5350 H   0  0  0  0  0  0
    0.5880   -3.9864    0.7660 H   0  0  0  0  0  0
   -0.3405   -3.2045   -0.4994 H   0  0  0  0  0  0
    2.5317   -1.5312   -0.8275 H   0  0  0  0  0  0
    3.0136   -0.1016   -1.6621 H   0  0  0  0  0  0
    4.5545   -0.5614    0.1730 H   0  0  0  0  0  0
    3.2609   -0.5111    1.3611 H   0  0  0  0  0  0
    4.2104    1.7987   -0.3966 H   0  0  0  0  0  0
    4.4228    1.6676    1.3317 H   0  0  0  0  0  0
    1.9976    1.8212    1.7100 H   0  0  0  0  0  0
    0.4243    2.0945   -0.1630 H   0  0  0  0  0  0
    1.6984    2.0724   -1.3275 H   0  0  0  0  0  0
    1.2270    0.1869   -0.6916 N   0  3  2  0  0  0
    0.8354    0.1090   -1.6375 H   0  0  0  0  0  0
  1  2  1  0  0  0
  1 15  1  0  0  0
  1 16  1  0  0  0
  1 17  1  0  0  0
  2  3  1  0  0  0
  2 18  1  0  0  0
  2 19  1  0  0  0
  3  4  1  0  0  0
  3 20  1  0  0  0
  3 21  1  0  0  0
  4  5  1  0  0  0
  4 22  1  0  0  0
  4 23  1  0  0  0
  5  6  1  0  0  0
  5 24  1  0  0  0
  5 25  1  0  0  0
  6  7  1  0  0  0
  6 26  1  0  0  0
  6 41  1  0  0  0
  7  8  1  0  0  0
  7 27  1  0  0  0
  7 28  1  0  0  0
  8 29  1  0  0  0
  8 30  1  0  0  0
  8 31  1  0  0  0
  9 10  1  0  0  0
  9 32  1  0  0  0
  9 33  1  0  0  0
  9 41  1  0  0  0
 10 11  1  0  0  0
 10 34  1  0  0  0
 10 35  1  0  0  0
 11 12  1  0  0  0
 11 36  1  0  0  0
 11 37  1  0  0  0
 12 13  1  0  0  0
 12 14  1  0  0  0
 12 38  1  0  0  0
 14 39  1  0  0  0
 14 40  1  0  0  0
 14 41  1  0  0  0
 41 42  1  0  0  0
M  CHG  1  41   1
M  END
> <energy>
41.513

> <chiral flag>
0

> <version>
0

> <i_ionizer_Ion_state_n>
1

> <i_ionizer_Tot_Q>
1

> <s_ionizer_Ion_centers>
41

> <s_ionizer_Ion_types>
N5

> <s_ionizer_Ion_ctrs_in>
9

> <r_ionizer_Ionization_penalty>
0.00148639

> <r_ionizer_Ionization_penalty_charging>
0.00148639

> <r_ionizer_Ionization_penalty_neutral>
0

$$$$
ZINC001258446614
                    3D
 Structure written by MMmdl.
 42 42  0  0  1  0            999 V2000
   -3.2109    2.0478    0.8956 C   0  0  0  0  0  0
   -3.4674    0.5817    0.5844 C   0  0  0  0  0  0
   -3.2811    0.2327   -0.8973 C   0  0  0  0  0  0
   -1.8183    0.2067   -1.3615 C   0  0  0  0  0  0
   -1.0709   -1.0560   -0.9012 C   0  0  0  0  0  0
    0.4591   -0.9688   -1.1364 C   0  0  2  0  0  0
    1.1347   -2.3635   -1.1077 C   0  0  0  0  0  0
    0.7434   -3.3114    0.0168 C   0  0  0  0  0  0
    1.1644   -0.1768    1.1321 C   0  0  0  0  0  0
    1.5605    1.0963    1.8919 C   0  0  0  0  0  0
    2.8728    1.6760    1.3774 C   0  0  0  0  0  0
    2.8666    1.8104   -0.1386 C   0  0  1  0  0  0
    4.1355    2.0847   -0.5538 F   0  0  0  0  0  0
    2.3886    0.5185   -0.8151 C   0  0  0  0  0  0
   -2.1729    2.3301    0.7030 H   0  0  0  0  0  0
   -3.4175    2.2488    1.9516 H   0  0  0  0  0  0
   -3.8602    2.6969    0.2997 H   0  0  0  0  0  0
   -2.8224   -0.0380    1.2151 H   0  0  0  0  0  0
   -4.4992    0.3494    0.8680 H   0  0  0  0  0  0
   -3.7372   -0.7466   -1.0920 H   0  0  0  0  0  0
   -3.8359    0.9584   -1.5066 H   0  0  0  0  0  0
   -1.8061    0.2264   -2.4580 H   0  0  0  0  0  0
   -1.3035    1.1141   -1.0291 H   0  0  0  0  0  0
   -1.2841   -1.2606    0.1509 H   0  0  0  0  0  0
   -1.4730   -1.9103   -1.4636 H   0  0  0  0  0  0
    0.5612   -0.6318   -2.1786 H   0  0  0  0  0  0
    2.2244   -2.2566   -1.1217 H   0  0  0  0  0  0
    0.8860   -2.8676   -2.0516 H   0  0  0  0  0  0
   -0.3294   -3.5271    0.0008 H   0  0  0  0  0  0
    1.2670   -4.2656   -0.1128 H   0  0  0  0  0  0
    1.0079   -2.9303    1.0033 H   0  0  0  0  0  0
    1.9101   -0.9570    1.3371 H   0  0  0  0  0  0
    0.2031   -0.5091    1.5347 H   0  0  0  0  0  0
    0.7672    1.8471    1.7978 H   0  0  0  0  0  0
    1.6515    0.8708    2.9583 H   0  0  0  0  0  0
    3.7110    1.0350    1.6814 H   0  0  0  0  0  0
    3.0650    2.6527    1.8344 H   0  0  0  0  0  0
    2.2367    2.6534   -0.4404 H   0  0  0  0  0  0
    3.1496   -0.2605   -0.6695 H   0  0  0  0  0  0
    2.3497    0.7100   -1.8934 H   0  0  0  0  0  0
    1.0508    0.1587   -0.3114 N   0  3  1  0  0  0
    0.4337    0.9742   -0.4037 H   0  0  0  0  0  0
  1  2  1  0  0  0
  1 15  1  0  0  0
  1 16  1  0  0  0
  1 17  1  0  0  0
  2  3  1  0  0  0
  2 18  1  0  0  0
  2 19  1  0  0  0
  3  4  1  0  0  0
  3 20  1  0  0  0
  3 21  1  0  0  0
  4  5  1  0  0  0
  4 22  1  0  0  0
  4 23  1  0  0  0
  5  6  1  0  0  0
  5 24  1  0  0  0
  5 25  1  0  0  0
  6  7  1  0  0  0
  6 26  1  0  0  0
  6 41  1  0  0  0
  7  8  1  0  0  0
  7 27  1  0  0  0
  7 28  1  0  0  0
  8 29  1  0  0  0
  8 30  1  0  0  0
  8 31  1  0  0  0
  9 10  1  0  0  0
  9 32  1  0  0  0
  9 33  1  0  0  0
  9 41  1  0  0  0
 10 11  1  0  0  0
 10 34  1  0  0  0
 10 35  1  0  0  0
 11 12  1  0  0  0
 11 36  1  0  0  0
 11 37  1  0  0  0
 12 13  1  0  0  0
 12 14  1  0  0  0
 12 38  1  0  0  0
 14 39  1  0  0  0
 14 40  1  0  0  0
 14 41  1  0  0  0
 41 42  1  0  0  0
M  CHG  1  41   1
M  END
> <energy>
30.7745

> <chiral flag>
0

> <version>
0

> <i_ionizer_Ion_state_n>
1

> <i_ionizer_Tot_Q>
1

> <s_ionizer_Ion_centers>
41

> <s_ionizer_Ion_types>
N5

> <s_ionizer_Ion_ctrs_in>
9

> <r_ionizer_Ionization_penalty>
0.00148639

> <r_ionizer_Ionization_penalty_charging>
0.00148639

> <r_ionizer_Ionization_penalty_neutral>
0

$$$$
ZINC001258446615
                    3D
 Structure written by MMmdl.
 42 42  0  0  1  0            999 V2000
   -3.5086    1.6570    1.0200 C   0  0  0  0  0  0
   -3.9628    0.4794    0.1707 C   0  0  0  0  0  0
   -2.8538   -0.5524   -0.0586 C   0  0  0  0  0  0
   -1.8454   -0.1183   -1.1298 C   0  0  0  0  0  0
   -0.7502   -1.1648   -1.3789 C   0  0  0  0  0  0
    0.2963   -1.3426   -0.2489 C   0  0  1  0  0  0
    1.1811   -2.5777   -0.5679 C   0  0  0  0  0  0
    2.1502   -2.9368    0.5535 C   0  0  0  0  0  0
    1.7252    0.5195   -1.1284 C   0  0  0  0  0  0
    2.9870    1.2743   -0.6897 C   0  0  0  0  0  0
    2.8290    2.0066    0.6452 C   0  0  0  0  0  0
    1.3757    2.0746    1.0904 C   0  0  2  0  0  0
    1.3174    2.6167    2.3379 F   0  0  0  0  0  0
    0.7336    0.6801    1.1113 C   0  0  0  0  0  0
   -4.3462    2.3421    1.1939 H   0  0  0  0  0  0
   -2.7119    2.2219    0.5295 H   0  0  0  0  0  0
   -3.1386    1.3179    1.9928 H   0  0  0  0  0  0
   -4.3485    0.8444   -0.7884 H   0  0  0  0  0  0
   -4.8010   -0.0110    0.6814 H   0  0  0  0  0  0
   -2.3502   -0.7660    0.8914 H   0  0  0  0  0  0
   -3.3224   -1.4869   -0.3885 H   0  0  0  0  0  0
   -2.3917    0.0244   -2.0726 H   0  0  0  0  0  0
   -1.4027    0.8516   -0.8875 H   0  0  0  0  0  0
   -0.2423   -0.9177   -2.3197 H   0  0  0  0  0  0
   -1.2397   -2.1306   -1.5603 H   0  0  0  0  0  0
   -0.2394   -1.6001    0.6737 H   0  0  0  0  0  0
    0.5348   -3.4459   -0.7432 H   0  0  0  0  0  0
    1.7492   -2.4242   -1.4924 H   0  0  0  0  0  0
    2.7098   -3.8415    0.2926 H   0  0  0  0  0  0
    2.8765   -2.1387    0.7332 H   0  0  0  0  0  0
    1.6164   -3.1273    1.4890 H   0  0  0  0  0  0
    2.0135   -0.1656   -1.9327 H   0  0  0  0  0  0
    0.9913    1.2175   -1.5516 H   0  0  0  0  0  0
    3.8206    0.5661   -0.5995 H   0  0  0  0  0  0
    3.2713    1.9843   -1.4758 H   0  0  0  0  0  0
    3.4204    1.4960    1.4165 H   0  0  0  0  0  0
    3.2507    3.0152    0.5793 H   0  0  0  0  0  0
    0.8125    2.7354    0.4207 H   0  0  0  0  0  0
    0.9761    0.1915    2.0621 H   0  0  0  0  0  0
   -0.3514    0.8232    1.1164 H   0  0  0  0  0  0
    1.2770   -0.2424    0.0815 N   0  3  1  0  0  0
    2.1090   -0.6920    0.4813 H   0  0  0  0  0  0
  1  2  1  0  0  0
  1 15  1  0  0  0
  1 16  1  0  0  0
  1 17  1  0  0  0
  2  3  1  0  0  0
  2 18  1  0  0  0
  2 19  1  0  0  0
  3  4  1  0  0  0
  3 20  1  0  0  0
  3 21  1  0  0  0
  4  5  1  0  0  0
  4 22  1  0  0  0
  4 23  1  0  0  0
  5  6  1  0  0  0
  5 24  1  0  0  0
  5 25  1  0  0  0
  6  7  1  0  0  0
  6 26  1  0  0  0
  6 41  1  0  0  0
  7  8  1  0  0  0
  7 27  1  0  0  0
  7 28  1  0  0  0
  8 29  1  0  0  0
  8 30  1  0  0  0
  8 31  1  0  0  0
  9 10  1  0  0  0
  9 32  1  0  0  0
  9 33  1  0  0  0
  9 41  1  0  0  0
 10 11  1  0  0  0
 10 34  1  0  0  0
 10 35  1  0  0  0
 11 12  1  0  0  0
 11 36  1  0  0  0
 11 37  1  0  0  0
 12 13  1  0  0  0
 12 14  1  0  0  0
 12 38  1  0  0  0
 14 39  1  0  0  0
 14 40  1  0  0  0
 14 41  1  0  0  0
 41 42  1  0  0  0
M  CHG  1  41   1
M  END
> <energy>
34.9232

> <chiral flag>
0

> <version>
0

> <i_ionizer_Ion_state_n>
1

> <i_ionizer_Tot_Q>
1

> <s_ionizer_Ion_centers>
41

> <s_ionizer_Ion_types>
N5

> <s_ionizer_Ion_ctrs_in>
9

> <r_ionizer_Ionization_penalty>
0.00148639

> <r_ionizer_Ionization_penalty_charging>
0.00148639

> <r_ionizer_Ionization_penalty_neutral>
0

$$$$
ZINC001258446616
                    3D
 Structure written by MMmdl.
 42 42  0  0  1  0            999 V2000
   -4.8580    0.3016   -1.1872 C   0  0  0  0  0  0
   -4.1429   -0.6460   -0.2372 C   0  0  0  0  0  0
   -2.7737   -0.1012    0.1617 C   0  0  0  0  0  0
   -2.0601   -1.0222    1.1585 C   0  0  0  0  0  0
   -0.6331   -0.5437    1.4700 C   0  0  0  0  0  0
    0.3720   -0.8279    0.3170 C   0  0  2  0  0  0
    1.1687   -2.1198    0.6237 C   0  0  0  0  0  0
    2.0548   -2.6145   -0.5085 C   0  0  0  0  0  0
    1.4220    0.7160   -1.2984 C   0  0  0  0  0  0
    2.4946    1.7980   -1.4889 C   0  0  0  0  0  0
    2.4683    2.8172   -0.3537 C   0  0  0  0  0  0
    2.6734    2.1320    0.9984 C   0  0  2  0  0  0
    3.9974    2.2175    1.3221 F   0  0  0  0  0  0
    2.2879    0.6421    0.9888 C   0  0  0  0  0  0
   -4.2659    0.4790   -2.0910 H   0  0  0  0  0  0
   -5.8213   -0.1212   -1.4891 H   0  0  0  0  0  0
   -5.0454    1.2689   -0.7073 H   0  0  0  0  0  0
   -4.7624   -0.8001    0.6530 H   0  0  0  0  0  0
   -4.0236   -1.6199   -0.7253 H   0  0  0  0  0  0
   -2.8912    0.8938    0.6104 H   0  0  0  0  0  0
   -2.1682    0.0297   -0.7421 H   0  0  0  0  0  0
   -2.0377   -2.0520    0.7864 H   0  0  0  0  0  0
   -2.6359   -1.0318    2.0936 H   0  0  0  0  0  0
   -0.2888   -1.0243    2.3958 H   0  0  0  0  0  0
   -0.6869    0.5289    1.6966 H   0  0  0  0  0  0
   -0.2083   -1.0216   -0.5919 H   0  0  0  0  0  0
    0.4571   -2.9210    0.8596 H   0  0  0  0  0  0
    1.7842   -1.9937    1.5202 H   0  0  0  0  0  0
    1.4792   -2.7661   -1.4277 H   0  0  0  0  0  0
    2.8722   -1.9200   -0.7184 H   0  0  0  0  0  0
    2.5081   -3.5724   -0.2318 H   0  0  0  0  0  0
    0.4872    1.0665   -1.7535 H   0  0  0  0  0  0
    1.7320   -0.1698   -1.8616 H   0  0  0  0  0  0
    2.3450    2.3023   -2.4500 H   0  0  0  0  0  0
    3.4830    1.3275   -1.5221 H   0  0  0  0  0  0
    3.2402    3.5791   -0.5124 H   0  0  0  0  0  0
    1.4949    3.3254   -0.3573 H   0  0  0  0  0  0
    2.1165    2.6706    1.7744 H   0  0  0  0  0  0
    3.1541    0.0355    0.6955 H   0  0  0  0  0  0
    2.0573    0.3586    2.0229 H   0  0  0  0  0  0
    1.0742    0.4962    0.1247 N   0  3  2  0  0  0
    0.4135    1.2325    0.4000 H   0  0  0  0  0  0
  1  2  1  0  0  0
  1 15  1  0  0  0
  1 16  1  0  0  0
  1 17  1  0  0  0
  2  3  1  0  0  0
  2 18  1  0  0  0
  2 19  1  0  0  0
  3  4  1  0  0  0
  3 20  1  0  0  0
  3 21  1  0  0  0
  4  5  1  0  0  0
  4 22  1  0  0  0
  4 23  1  0  0  0
  5  6  1  0  0  0
  5 24  1  0  0  0
  5 25  1  0  0  0
  6  7  1  0  0  0
  6 26  1  0  0  0
  6 41  1  0  0  0
  7  8  1  0  0  0
  7 27  1  0  0  0
  7 28  1  0  0  0
  8 29  1  0  0  0
  8 30  1  0  0  0
  8 31  1  0  0  0
  9 10  1  0  0  0
  9 32  1  0  0  0
  9 33  1  0  0  0
  9 41  1  0  0  0
 10 11  1  0  0  0
 10 34  1  0  0  0
 10 35  1  0  0  0
 11 12  1  0  0  0
 11 36  1  0  0  0
 11 37  1  0  0  0
 12 13  1  0  0  0
 12 14  1  0  0  0
 12 38  1  0  0  0
 14 39  1  0  0  0
 14 40  1  0  0  0
 14 41  1  0  0  0
 41 42  1  0  0  0
M  CHG  1  41   1
M  END
> <energy>
37.7662

> <chiral flag>
0

> <version>
0

> <i_ionizer_Ion_state_n>
1

> <i_ionizer_Tot_Q>
1

> <s_ionizer_Ion_centers>
41

> <s_ionizer_Ion_types>
N5

> <s_ionizer_Ion_ctrs_in>
9

> <r_ionizer_Ionization_penalty>
0.00148639

> <r_ionizer_Ionization_penalty_charging>
0.00148639

> <r_ionizer_Ionization_penalty_neutral>
0

$$$$
ZINC001258446660
                    3D
 Structure written by MMmdl.
 43 44  0  0  1  0            999 V2000
   -1.4505    3.1786   -0.3731 C   0  0  0  0  0  0
   -2.4959    2.1427   -0.7556 C   0  0  0  0  0  0
   -3.1542    1.4789    0.4585 C   0  0  0  0  0  0
   -2.6912    0.0401    0.7220 C   0  0  0  0  0  0
   -1.2410   -0.0872    1.2223 C   0  0  0  0  0  0
   -0.3070   -0.8292    0.2241 C   0  0  2  0  0  0
   -0.7490   -2.3198    0.1368 C   0  0  0  0  0  0
   -0.7055   -2.8793   -1.2796 C   0  0  0  0  0  0
    1.7009    0.6189    0.6661 C   0  0  1  0  0  0
    3.0415    0.2786    1.3346 C   0  0  0  0  0  0
    3.3469   -1.1144    0.7720 C   0  0  0  0  0  0
    2.1305   -1.3846   -0.1290 C   0  0  2  0  0  0
    2.2364   -0.5008   -1.3789 C   0  0  0  0  0  0
    1.9436    0.8967   -0.8236 C   0  0  0  0  0  0
   -1.8884    3.9623    0.2539 H   0  0  0  0  0  0
   -1.0447    3.6554   -1.2712 H   0  0  0  0  0  0
   -0.6183    2.7300    0.1718 H   0  0  0  0  0  0
   -3.2732    2.6590   -1.3320 H   0  0  0  0  0  0
   -2.0563    1.3967   -1.4256 H   0  0  0  0  0  0
   -4.2348    1.4347    0.2688 H   0  0  0  0  0  0
   -3.0288    2.0878    1.3621 H   0  0  0  0  0  0
   -2.8601   -0.5558   -0.1818 H   0  0  0  0  0  0
   -3.3510   -0.3794    1.4924 H   0  0  0  0  0  0
   -1.2456   -0.6403    2.1719 H   0  0  0  0  0  0
   -0.8619    0.9073    1.4692 H   0  0  0  0  0  0
   -0.4338   -0.3594   -0.7579 H   0  0  0  0  0  0
   -1.7732   -2.4480    0.5057 H   0  0  0  0  0  0
   -0.1341   -2.9464    0.7949 H   0  0  0  0  0  0
    0.3049   -2.8925   -1.6927 H   0  0  0  0  0  0
   -1.3402   -2.2900   -1.9490 H   0  0  0  0  0  0
   -1.0773   -3.9091   -1.2846 H   0  0  0  0  0  0
    1.1805    1.4187    1.1950 H   0  0  0  0  0  0
    3.8298    0.9991    1.0945 H   0  0  0  0  0  0
    2.9394    0.2301    2.4256 H   0  0  0  0  0  0
    3.4081   -1.8465    1.5860 H   0  0  0  0  0  0
    4.2932   -1.1337    0.2217 H   0  0  0  0  0  0
    2.0112   -2.4510   -0.3280 H   0  0  0  0  0  0
    1.4924   -0.7724   -2.1348 H   0  0  0  0  0  0
    3.2259   -0.5501   -1.8452 H   0  0  0  0  0  0
    2.7814    1.5815   -0.9911 H   0  0  0  0  0  0
    1.0574    1.3214   -1.3069 H   0  0  0  0  0  0
    1.1699   -0.7147    0.7068 N   0  3  2  0  0  0
    1.2126   -1.0861    1.6631 H   0  0  0  0  0  0
  1  2  1  0  0  0
  1 15  1  0  0  0
  1 16  1  0  0  0
  1 17  1  0  0  0
  2  3  1  0  0  0
  2 18  1  0  0  0
  2 19  1  0  0  0
  3  4  1  0  0  0
  3 20  1  0  0  0
  3 21  1  0  0  0
  4  5  1  0  0  0
  4 22  1  0  0  0
  4 23  1  0  0  0
  5  6  1  0  0  0
  5 24  1  0  0  0
  5 25  1  0  0  0
  6  7  1  0  0  0
  6 26  1  0  0  0
  6 42  1  0  0  0
  7  8  1  0  0  0
  7 27  1  0  0  0
  7 28  1  0  0  0
  8 29  1  0  0  0
  8 30  1  0  0  0
  8 31  1  0  0  0
  9 10  1  0  0  0
  9 14  1  0  0  0
  9 32  1  0  0  0
  9 42  1  0  0  0
 10 11  1  0  0  0
 10 33  1  0  0  0
 10 34  1  0  0  0
 11 12  1  0  0  0
 11 35  1  0  0  0
 11 36  1  0  0  0
 12 13  1  0  0  0
 12 37  1  0  0  0
 12 42  1  0  0  0
 13 14  1  0  0  0
 13 38  1  0  0  0
 13 39  1  0  0  0
 14 40  1  0  0  0
 14 41  1  0  0  0
 42 43  1  0  0  0
M  CHG  1  42   1
M  END
> <energy>
32.6459

> <chiral flag>
0

> <version>
0

> <i_ionizer_Ion_state_n>
1

> <i_ionizer_Tot_Q>
1

> <s_ionizer_Ion_centers>
42

> <s_ionizer_Ion_types>
N5

> <s_ionizer_Ion_ctrs_in>
9

> <r_ionizer_Ionization_penalty>
0.00148639

> <r_ionizer_Ionization_penalty_charging>
0.00148639

> <r_ionizer_Ionization_penalty_neutral>
0

$$$$
ZINC001258446661
                    3D
 Structure written by MMmdl.
 43 44  0  0  1  0            999 V2000
    1.6651    1.7007    4.1570 C   0  0  0  0  0  0
    0.9846    1.4778    2.8150 C   0  0  0  0  0  0
   -0.4379    0.9457    2.9885 C   0  0  0  0  0  0
   -1.2241    0.7953    1.6768 C   0  0  0  0  0  0
   -1.0932   -0.5777    0.9972 C   0  0  0  0  0  0
    0.1489   -0.8014    0.1010 C   0  0  1  0  0  0
    0.5275   -2.3075    0.1471 C   0  0  0  0  0  0
    1.8820   -2.6300   -0.4766 C   0  0  0  0  0  0
   -0.2146    1.0789   -1.5895 C   0  0  2  0  0  0
   -1.7343    1.0094   -1.8097 C   0  0  0  0  0  0
   -1.9378   -0.4156   -2.3354 C   0  0  0  0  0  0
   -0.5096   -0.9669   -2.3743 C   0  0  1  0  0  0
    0.2534   -0.2743   -3.5192 C   0  0  0  0  0  0
    0.4597    1.1505   -2.9723 C   0  0  0  0  0  0
    1.7814    0.7558    4.6970 H   0  0  0  0  0  0
    1.0902    2.3882    4.7851 H   0  0  0  0  0  0
    2.6610    2.1299    4.0084 H   0  0  0  0  0  0
    1.5928    0.7795    2.2383 H   0  0  0  0  0  0
    0.9597    2.4230    2.2624 H   0  0  0  0  0  0
   -0.4241   -0.0018    3.5391 H   0  0  0  0  0  0
   -0.9849    1.6581    3.6207 H   0  0  0  0  0  0
   -2.2855    0.9090    1.9360 H   0  0  0  0  0  0
   -0.9924    1.6198    1.0001 H   0  0  0  0  0  0
   -2.0005   -0.7734    0.4203 H   0  0  0  0  0  0
   -1.1184   -1.3360    1.7906 H   0  0  0  0  0  0
    0.9823   -0.2941    0.5915 H   0  0  0  0  0  0
   -0.2526   -2.9159   -0.3252 H   0  0  0  0  0  0
    0.5749   -2.6321    1.1950 H   0  0  0  0  0  0
    2.6834   -2.0779    0.0251 H   0  0  0  0  0  0
    2.0935   -3.6995   -0.3718 H   0  0  0  0  0  0
    1.9133   -2.3920   -1.5430 H   0  0  0  0  0  0
    0.1319    1.8680   -0.9206 H   0  0  0  0  0  0
   -2.3041    1.1602   -0.8890 H   0  0  0  0  0  0
   -2.0821    1.7556   -2.5325 H   0  0  0  0  0  0
   -2.4151   -0.4129   -3.3209 H   0  0  0  0  0  0
   -2.5722   -0.9939   -1.6573 H   0  0  0  0  0  0
   -0.4421   -2.0559   -2.4337 H   0  0  0  0  0  0
    1.2262   -0.7514   -3.6882 H   0  0  0  0  0  0
   -0.3015   -0.2763   -4.4622 H   0  0  0  0  0  0
    1.5314    1.3650   -2.8781 H   0  0  0  0  0  0
    0.0139    1.9083   -3.6243 H   0  0  0  0  0  0
    0.2526   -0.2621   -1.3719 N   0  3  2  0  0  0
    1.2475   -0.3102   -1.6210 H   0  0  0  0  0  0
  1  2  1  0  0  0
  1 15  1  0  0  0
  1 16  1  0  0  0
  1 17  1  0  0  0
  2  3  1  0  0  0
  2 18  1  0  0  0
  2 19  1  0  0  0
  3  4  1  0  0  0
  3 20  1  0  0  0
  3 21  1  0  0  0
  4  5  1  0  0  0
  4 22  1  0  0  0
  4 23  1  0  0  0
  5  6  1  0  0  0
  5 24  1  0  0  0
  5 25  1  0  0  0
  6  7  1  0  0  0
  6 26  1  0  0  0
  6 42  1  0  0  0
  7  8  1  0  0  0
  7 27  1  0  0  0
  7 28  1  0  0  0
  8 29  1  0  0  0
  8 30  1  0  0  0
  8 31  1  0  0  0
  9 10  1  0  0  0
  9 14  1  0  0  0
  9 32  1  0  0  0
  9 42  1  0  0  0
 10 11  1  0  0  0
 10 33  1  0  0  0
 10 34  1  0  0  0
 11 12  1  0  0  0
 11 35  1  0  0  0
 11 36  1  0  0  0
 12 13  1  0  0  0
 12 37  1  0  0  0
 12 42  1  0  0  0
 13 14  1  0  0  0
 13 38  1  0  0  0
 13 39  1  0  0  0
 14 40  1  0  0  0
 14 41  1  0  0  0
 42 43  1  0  0  0
M  CHG  1  42   1
M  END
> <energy>
36.1489

> <chiral flag>
0

> <version>
0

> <i_ionizer_Ion_state_n>
1

> <i_ionizer_Tot_Q>
1

> <s_ionizer_Ion_centers>
42

> <s_ionizer_Ion_types>
N5

> <s_ionizer_Ion_ctrs_in>
9

> <r_ionizer_Ionization_penalty>
0.00148639

> <r_ionizer_Ionization_penalty_charging>
0.00148639

> <r_ionizer_Ionization_penalty_neutral>
0

$$$$
ZINC001258446675
                    3D
 Structure written by MMmdl.
 49 49  0  0  1  0            999 V2000
   -3.9443    0.6919    1.1052 C   0  0  0  0  0  0
   -3.9718    0.6752   -0.4160 C   0  0  0  0  0  0
   -2.6150    0.3507   -1.0474 C   0  0  0  0  0  0
   -2.1139   -1.0547   -0.7075 C   0  0  0  0  0  0
   -0.8895   -1.4816   -1.5302 C   0  0  0  0  0  0
    0.4340   -0.7082   -1.2502 C   0  0  2  0  0  0
    1.5369   -1.2710   -2.1870 C   0  0  0  0  0  0
    2.8158   -0.4487   -2.2412 C   0  0  0  0  0  0
    1.4638   -1.8274    0.7525 C   0  0  0  0  0  0
    0.6930   -3.1413    0.7548 C   0  0  0  0  0  0
    1.3341    0.6070    0.7320 C   0  0  0  0  0  0
    1.1114    1.9070   -0.0696 C   0  0  0  0  0  0
    1.7019    3.1081    0.6591 C   0  0  0  0  0  0
    1.1226    3.2497    1.9516 O   0  0  0  0  0  0
    1.3698    2.1123    2.7710 C   0  0  0  0  0  0
    0.7768    0.8510    2.1556 C   0  0  0  0  0  0
   -3.1766    1.3773    1.4779 H   0  0  0  0  0  0
   -3.7472   -0.3044    1.5118 H   0  0  0  0  0  0
   -4.9125    1.0227    1.4951 H   0  0  0  0  0  0
   -4.2941    1.6615   -0.7704 H   0  0  0  0  0  0
   -4.7241   -0.0449   -0.7583 H   0  0  0  0  0  0
   -2.7125    0.4503   -2.1356 H   0  0  0  0  0  0
   -1.8849    1.0977   -0.7247 H   0  0  0  0  0  0
   -2.9192   -1.7723   -0.9114 H   0  0  0  0  0  0
   -1.8923   -1.1334    0.3617 H   0  0  0  0  0  0
   -0.7449   -2.5565   -1.3937 H   0  0  0  0  0  0
   -1.1408   -1.3653   -2.5938 H   0  0  0  0  0  0
    0.2110    0.2969   -1.6172 H   0  0  0  0  0  0
    1.1370   -1.3181   -3.2090 H   0  0  0  0  0  0
    1.7822   -2.3062   -1.9240 H   0  0  0  0  0  0
    3.3002   -0.3713   -1.2653 H   0  0  0  0  0  0
    3.5287   -0.9146   -2.9291 H   0  0  0  0  0  0
    2.6149    0.5589   -2.6149 H   0  0  0  0  0  0
    1.7098   -1.6444    1.8047 H   0  0  0  0  0  0
    2.4338   -1.9697    0.2618 H   0  0  0  0  0  0
    0.6699   -3.6030   -0.2348 H   0  0  0  0  0  0
   -0.3302   -3.0071    1.1182 H   0  0  0  0  0  0
    1.1844   -3.8572    1.4233 H   0  0  0  0  0  0
    2.4237    0.4765    0.8024 H   0  0  0  0  0  0
    0.0375    2.0794   -0.1991 H   0  0  0  0  0  0
    1.5739    1.8525   -1.0583 H   0  0  0  0  0  0
    2.7914    3.0264    0.7507 H   0  0  0  0  0  0
    1.4871    4.0227    0.0973 H   0  0  0  0  0  0
    2.4490    2.0056    2.9327 H   0  0  0  0  0  0
    0.9101    2.3004    3.7466 H   0  0  0  0  0  0
   -0.3142    0.9631    2.0944 H   0  0  0  0  0  0
    0.9772    0.0137    2.8303 H   0  0  0  0  0  0
    0.6616   -0.6622    0.2720 N   0  3  1  0  0  0
   -0.2619   -0.7070    0.7183 H   0  0  0  0  0  0
  1  2  1  0  0  0
  1 17  1  0  0  0
  1 18  1  0  0  0
  1 19  1  0  0  0
  2  3  1  0  0  0
  2 20  1  0  0  0
  2 21  1  0  0  0
  3  4  1  0  0  0
  3 22  1  0  0  0
  3 23  1  0  0  0
  4  5  1  0  0  0
  4 24  1  0  0  0
  4 25  1  0  0  0
  5  6  1  0  0  0
  5 26  1  0  0  0
  5 27  1  0  0  0
  6  7  1  0  0  0
  6 28  1  0  0  0
  6 48  1  0  0  0
  7  8  1  0  0  0
  7 29  1  0  0  0
  7 30  1  0  0  0
  8 31  1  0  0  0
  8 32  1  0  0  0
  8 33  1  0  0  0
  9 10  1  0  0  0
  9 34  1  0  0  0
  9 35  1  0  0  0
  9 48  1  0  0  0
 10 36  1  0  0  0
 10 37  1  0  0  0
 10 38  1  0  0  0
 11 12  1  0  0  0
 11 16  1  0  0  0
 11 39  1  0  0  0
 11 48  1  0  0  0
 12 13  1  0  0  0
 12 40  1  0  0  0
 12 41  1  0  0  0
 13 14  1  0  0  0
 13 42  1  0  0  0
 13 43  1  0  0  0
 14 15  1  0  0  0
 15 16  1  0  0  0
 15 44  1  0  0  0
 15 45  1  0  0  0
 16 46  1  0  0  0
 16 47  1  0  0  0
 48 49  1  0  0  0
M  CHG  1  48   1
M  END
> <energy>
19.204

> <chiral flag>
0

> <version>
0

> <i_ionizer_Ion_state_n>
1

> <i_ionizer_Tot_Q>
1

> <s_ionizer_Ion_centers>
48

> <s_ionizer_Ion_types>
N5

> <s_ionizer_Ion_ctrs_in>
9

> <r_ionizer_Ionization_penalty>
0.00148639

> <r_ionizer_Ionization_penalty_charging>
0.00148639

> <r_ionizer_Ionization_penalty_neutral>
0

$$$$
ZINC001258446676
                    3D
 Structure written by MMmdl.
 49 49  0  0  1  0            999 V2000
   -2.8594    2.2213   -0.2820 C   0  0  0  0  0  0
   -2.3452    0.8633   -0.7311 C   0  0  0  0  0  0
   -2.8413   -0.2697    0.1676 C   0  0  0  0  0  0
   -2.4054   -1.6468   -0.3313 C   0  0  0  0  0  0
   -1.2563   -2.3297    0.4304 C   0  0  0  0  0  0
    0.2426   -1.8795    0.2680 C   0  0  1  0  0  0
    0.8128   -2.4952   -1.0458 C   0  0  0  0  0  0
    0.1121   -2.1272   -2.3441 C   0  0  0  0  0  0
    0.2945   -0.2480    2.0733 C   0  0  0  0  0  0
   -0.1890    1.1376    2.4992 C   0  0  0  0  0  0
    1.9745   -0.0379    0.2688 C   0  0  0  0  0  0
    2.1440    0.4233   -1.1951 C   0  0  0  0  0  0
    1.4964    1.7774   -1.4721 C   0  0  0  0  0  0
    1.4218    2.6098   -0.3166 O   0  0  0  0  0  0
    2.5657    2.4830    0.5152 C   0  0  0  0  0  0
    2.6997    1.0707    1.0923 C   0  0  0  0  0  0
   -2.4858    3.0047   -0.9506 H   0  0  0  0  0  0
   -3.9534    2.2488   -0.3035 H   0  0  0  0  0  0
   -2.5255    2.4659    0.7291 H   0  0  0  0  0  0
   -1.2567    0.8837   -0.7346 H   0  0  0  0  0  0
   -2.6663    0.6855   -1.7628 H   0  0  0  0  0  0
   -2.5326   -0.1204    1.2052 H   0  0  0  0  0  0
   -3.9390   -0.2342    0.1684 H   0  0  0  0  0  0
   -2.2426   -1.6259   -1.4075 H   0  0  0  0  0  0
   -3.2736   -2.3065   -0.1942 H   0  0  0  0  0  0
   -1.2906   -3.3934    0.1491 H   0  0  0  0  0  0
   -1.5320   -2.3427    1.4907 H   0  0  0  0  0  0
    0.7812   -2.4520    1.0399 H   0  0  0  0  0  0
    0.7666   -3.5881   -0.9509 H   0  0  0  0  0  0
    1.8874   -2.3020   -1.1334 H   0  0  0  0  0  0
   -0.7890   -2.7327   -2.4828 H   0  0  0  0  0  0
    0.7618   -2.3470   -3.1963 H   0  0  0  0  0  0
   -0.1649   -1.0711   -2.3860 H   0  0  0  0  0  0
    1.1732   -0.5482    2.6544 H   0  0  0  0  0  0
   -0.4856   -0.9241    2.4279 H   0  0  0  0  0  0
   -0.0823    1.2344    3.5863 H   0  0  0  0  0  0
    0.3546    1.9647    2.0407 H   0  0  0  0  0  0
   -1.2487    1.2713    2.2713 H   0  0  0  0  0  0
    2.5954   -0.9304    0.4294 H   0  0  0  0  0  0
    1.8156   -0.2917   -1.9419 H   0  0  0  0  0  0
    3.2229    0.5131   -1.3915 H   0  0  0  0  0  0
    0.4799    1.6478   -1.8560 H   0  0  0  0  0  0
    2.0611    2.3088   -2.2483 H   0  0  0  0  0  0
    3.4629    2.7465   -0.0593 H   0  0  0  0  0  0
    2.4765    3.2141    1.3253 H   0  0  0  0  0  0
    2.4374    1.0697    2.1539 H   0  0  0  0  0  0
    3.7742    0.8346    1.1175 H   0  0  0  0  0  0
    0.5276   -0.4262    0.6173 N   0  3  1  0  0  0
   -0.1138    0.1789    0.0912 H   0  0  0  0  0  0
  1  2  1  0  0  0
  1 17  1  0  0  0
  1 18  1  0  0  0
  1 19  1  0  0  0
  2  3  1  0  0  0
  2 20  1  0  0  0
  2 21  1  0  0  0
  3  4  1  0  0  0
  3 22  1  0  0  0
  3 23  1  0  0  0
  4  5  1  0  0  0
  4 24  1  0  0  0
  4 25  1  0  0  0
  5  6  1  0  0  0
  5 26  1  0  0  0
  5 27  1  0  0  0
  6  7  1  0  0  0
  6 28  1  0  0  0
  6 48  1  0  0  0
  7  8  1  0  0  0
  7 29  1  0  0  0
  7 30  1  0  0  0
  8 31  1  0  0  0
  8 32  1  0  0  0
  8 33  1  0  0  0
  9 10  1  0  0  0
  9 34  1  0  0  0
  9 35  1  0  0  0
  9 48  1  0  0  0
 10 36  1  0  0  0
 10 37  1  0  0  0
 10 38  1  0  0  0
 11 12  1  0  0  0
 11 16  1  0  0  0
 11 39  1  0  0  0
 11 48  1  0  0  0
 12 13  1  0  0  0
 12 40  1  0  0  0
 12 41  1  0  0  0
 13 14  1  0  0  0
 13 42  1  0  0  0
 13 43  1  0  0  0
 14 15  1  0  0  0
 15 16  1  0  0  0
 15 44  1  0  0  0
 15 45  1  0  0  0
 16 46  1  0  0  0
 16 47  1  0  0  0
 48 49  1  0  0  0
M  CHG  1  48   1
M  END
> <energy>
49.2287

> <chiral flag>
0

> <version>
0

> <i_ionizer_Ion_state_n>
1

> <i_ionizer_Tot_Q>
1

> <s_ionizer_Ion_centers>
48

> <s_ionizer_Ion_types>
N5

> <s_ionizer_Ion_ctrs_in>
9

> <r_ionizer_Ionization_penalty>
0.00148639

> <r_ionizer_Ionization_penalty_charging>
0.00148639

> <r_ionizer_Ionization_penalty_neutral>
0

$$$$
ZINC001258446704
                    3D
 Structure written by MMmdl.
 43 44  0  0  1  0            999 V2000
    4.0138   -2.4516    0.8133 C   0  0  0  0  0  0
    4.7216   -1.1535    0.4447 C   0  0  0  0  0  0
    3.7378   -0.0443    0.1690 C   0  0  0  0  0  0
    3.2349    0.1640   -1.1191 C   0  0  0  0  0  0
    2.2589    1.1365   -1.3464 C   0  0  0  0  0  0
    1.7611    1.9069   -0.2852 C   0  0  0  0  0  0
    0.5931    2.8452   -0.5004 C   0  0  0  0  0  0
   -0.7092    2.3947    0.2049 C   0  0  0  0  0  0
   -2.3491    0.5201    0.2712 C   0  0  2  0  0  0
   -2.7506    0.7916    1.7241 C   0  0  0  0  0  0
   -2.3919   -1.0013   -0.0190 C   0  0  0  0  0  0
   -3.7687   -1.4775   -0.3959 C   0  0  0  0  0  0
   -4.2295   -1.3917   -1.8292 C   0  0  0  0  0  0
   -3.9202   -2.7322   -1.2192 C   0  0  0  0  0  0
    2.2995    1.7304    0.9935 C   0  0  0  0  0  0
    3.2748    0.7582    1.2200 C   0  0  0  0  0  0
    3.4401   -2.8416   -0.0341 H   0  0  0  0  0  0
    3.3189   -2.3100    1.6485 H   0  0  0  0  0  0
    4.7408   -3.2153    1.1093 H   0  0  0  0  0  0
    5.3906   -0.8576    1.2615 H   0  0  0  0  0  0
    5.3600   -1.3134   -0.4320 H   0  0  0  0  0  0
    3.5831   -0.4468   -1.9509 H   0  0  0  0  0  0
    1.8656    1.2607   -2.3497 H   0  0  0  0  0  0
    0.8750    3.8495   -0.1588 H   0  0  0  0  0  0
    0.3893    2.9375   -1.5739 H   0  0  0  0  0  0
   -1.5304    3.0220   -0.1658 H   0  0  0  0  0  0
   -0.6157    2.5764    1.2815 H   0  0  0  0  0  0
   -3.0463    1.0391   -0.3976 H   0  0  0  0  0  0
   -2.0263    0.3633    2.4271 H   0  0  0  0  0  0
   -3.7276    0.3494    1.9488 H   0  0  0  0  0  0
   -2.8255    1.8647    1.9287 H   0  0  0  0  0  0
   -1.7053   -1.2516   -0.8415 H   0  0  0  0  0  0
   -2.0394   -1.5673    0.8541 H   0  0  0  0  0  0
   -4.4978   -1.3185    0.3888 H   0  0  0  0  0  0
   -5.2672   -1.1410   -2.0137 H   0  0  0  0  0  0
   -3.5409   -1.0038   -2.5716 H   0  0  0  0  0  0
   -4.7478   -3.3945   -0.9900 H   0  0  0  0  0  0
   -3.0180   -3.2414   -1.5426 H   0  0  0  0  0  0
    1.9320    2.3190    1.8312 H   0  0  0  0  0  0
    3.6512    0.6131    2.2289 H   0  0  0  0  0  0
   -0.9534    0.9457   -0.0435 N   0  3  0  0  0  0
   -0.7681    0.7491   -1.0340 H   0  0  0  0  0  0
   -0.3073    0.4015    0.5402 H   0  0  0  0  0  0
  1  2  1  0  0  0
  1 17  1  0  0  0
  1 18  1  0  0  0
  1 19  1  0  0  0
  2  3  1  0  0  0
  2 20  1  0  0  0
  2 21  1  0  0  0
  3  4  2  0  0  0
  3 16  1  0  0  0
  4  5  1  0  0  0
  4 22  1  0  0  0
  5  6  2  0  0  0
  5 23  1  0  0  0
  6  7  1  0  0  0
  6 15  1  0  0  0
  7  8  1  0  0  0
  7 24  1  0  0  0
  7 25  1  0  0  0
  8 26  1  0  0  0
  8 27  1  0  0  0
  8 41  1  0  0  0
  9 10  1  0  0  0
  9 11  1  0  0  0
  9 28  1  0  0  0
  9 41  1  0  0  0
 10 29  1  0  0  0
 10 30  1  0  0  0
 10 31  1  0  0  0
 11 12  1  0  0  0
 11 32  1  0  0  0
 11 33  1  0  0  0
 12 13  1  0  0  0
 12 14  1  0  0  0
 12 34  1  0  0  0
 13 14  1  0  0  0
 13 35  1  0  0  0
 13 36  1  0  0  0
 14 37  1  0  0  0
 14 38  1  0  0  0
 15 16  2  0  0  0
 15 39  1  0  0  0
 16 40  1  0  0  0
 41 42  1  0  0  0
 41 43  1  0  0  0
M  CHG  1  41   1
M  END
> <energy>
64.9798

> <chiral flag>
0

> <version>
0

> <i_ionizer_Ion_state_n>
1

> <i_ionizer_Tot_Q>
1

> <s_ionizer_Ion_centers>
41

> <s_ionizer_Ion_types>
N5

> <s_ionizer_Ion_ctrs_in>
9

> <r_ionizer_Ionization_penalty>
0.000148807

> <r_ionizer_Ionization_penalty_charging>
0.000148807

> <r_ionizer_Ionization_penalty_neutral>
0

$$$$
ZINC001258446706
                    3D
 Structure written by MMmdl.
 43 44  0  0  1  0            999 V2000
    5.7894    2.1102   -0.0935 C   0  0  0  0  0  0
    4.9044    1.6438   -1.2408 C   0  0  0  0  0  0
    3.7349    0.8379   -0.7360 C   0  0  0  0  0  0
    2.5883    1.4690   -0.2415 C   0  0  0  0  0  0
    1.5303    0.7130    0.2527 C   0  0  0  0  0  0
    1.5947   -0.6882    0.2581 C   0  0  0  0  0  0
    0.4048   -1.4839    0.7242 C   0  0  0  0  0  0
   -0.6221   -1.6226   -0.4096 C   0  0  0  0  0  0
   -3.0354   -1.2057   -0.4875 C   0  0  1  0  0  0
   -3.8700   -2.1793   -1.3199 C   0  0  0  0  0  0
   -3.9142   -0.5135    0.5812 C   0  0  0  0  0  0
   -3.1672    0.5297    1.3750 C   0  0  0  0  0  0
   -2.8673    1.8857    0.7890 C   0  0  0  0  0  0
   -3.8972    1.7514    1.8748 C   0  0  0  0  0  0
    2.7397   -1.3234   -0.2328 C   0  0  0  0  0  0
    3.8014   -0.5656   -0.7233 C   0  0  0  0  0  0
    6.0026    1.2988    0.6109 H   0  0  0  0  0  0
    6.7410    2.4886   -0.4821 H   0  0  0  0  0  0
    5.3055    2.9214    0.4607 H   0  0  0  0  0  0
    4.5425    2.5093   -1.8120 H   0  0  0  0  0  0
    5.4970    1.0366   -1.9380 H   0  0  0  0  0  0
    2.5149    2.5549   -0.2389 H   0  0  0  0  0  0
    0.6398    1.2176    0.6220 H   0  0  0  0  0  0
   -0.0303   -0.9746    1.5982 H   0  0  0  0  0  0
    0.7206   -2.4755    1.0765 H   0  0  0  0  0  0
   -0.6412   -0.7026   -1.0096 H   0  0  0  0  0  0
   -0.3195   -2.4223   -1.1036 H   0  0  0  0  0  0
   -2.6610   -0.4306   -1.1674 H   0  0  0  0  0  0
   -3.2557   -2.6487   -2.0938 H   0  0  0  0  0  0
   -4.6853   -1.6469   -1.8157 H   0  0  0  0  0  0
   -4.3166   -2.9664   -0.7049 H   0  0  0  0  0  0
   -4.7802   -0.0518    0.0836 H   0  0  0  0  0  0
   -4.3169   -1.2573    1.2792 H   0  0  0  0  0  0
   -2.4210    0.0863    2.0292 H   0  0  0  0  0  0
   -1.9227    2.3440    1.0463 H   0  0  0  0  0  0
   -3.2121    2.0934   -0.2169 H   0  0  0  0  0  0
   -3.6539    2.1215    2.8644 H   0  0  0  0  0  0
   -4.9332    1.9016    1.5936 H   0  0  0  0  0  0
    2.8077   -2.4083   -0.2440 H   0  0  0  0  0  0
    4.6886   -1.0744   -1.1029 H   0  0  0  0  0  0
   -1.9377   -1.9516    0.1788 N   0  3  0  0  0  0
   -2.1073   -2.9588    0.0737 H   0  0  0  0  0  0
   -1.9269   -1.7086    1.1763 H   0  0  0  0  0  0
  1  2  1  0  0  0
  1 17  1  0  0  0
  1 18  1  0  0  0
  1 19  1  0  0  0
  2  3  1  0  0  0
  2 20  1  0  0  0
  2 21  1  0  0  0
  3  4  2  0  0  0
  3 16  1  0  0  0
  4  5  1  0  0  0
  4 22  1  0  0  0
  5  6  2  0  0  0
  5 23  1  0  0  0
  6  7  1  0  0  0
  6 15  1  0  0  0
  7  8  1  0  0  0
  7 24  1  0  0  0
  7 25  1  0  0  0
  8 26  1  0  0  0
  8 27  1  0  0  0
  8 41  1  0  0  0
  9 10  1  0  0  0
  9 11  1  0  0  0
  9 28  1  0  0  0
  9 41  1  0  0  0
 10 29  1  0  0  0
 10 30  1  0  0  0
 10 31  1  0  0  0
 11 12  1  0  0  0
 11 32  1  0  0  0
 11 33  1  0  0  0
 12 13  1  0  0  0
 12 14  1  0  0  0
 12 34  1  0  0  0
 13 14  1  0  0  0
 13 35  1  0  0  0
 13 36  1  0  0  0
 14 37  1  0  0  0
 14 38  1  0  0  0
 15 16  2  0  0  0
 15 39  1  0  0  0
 16 40  1  0  0  0
 41 42  1  0  0  0
 41 43  1  0  0  0
M  CHG  1  41   1
M  END
> <energy>
65.8603

> <chiral flag>
0

> <version>
0

> <i_ionizer_Ion_state_n>
1

> <i_ionizer_Tot_Q>
1

> <s_ionizer_Ion_centers>
41

> <s_ionizer_Ion_types>
N5

> <s_ionizer_Ion_ctrs_in>
9

> <r_ionizer_Ionization_penalty>
0.000148807

> <r_ionizer_Ionization_penalty_charging>
0.000148807

> <r_ionizer_Ionization_penalty_neutral>
0

$$$$
ZINC001258446731
                    3D
 Structure written by MMmdl.
 47 48  0  0  1  0            999 V2000
   -4.1776   -3.6772    0.2861 C   0  0  0  0  0  0
   -3.0197   -2.8807   -0.2953 C   0  0  0  0  0  0
   -2.8487   -1.5323    0.4068 C   0  0  0  0  0  0
   -1.7182   -0.7170   -0.2281 C   0  0  0  0  0  0
   -1.5180    0.6243    0.4939 C   0  0  0  0  0  0
   -0.5508    1.5840   -0.2494 C   0  0  1  0  0  0
   -0.4283    2.9442    0.4790 C   0  0  0  0  0  0
   -1.7263    3.7458    0.4850 C   0  0  0  0  0  0
    1.4328    1.4394   -1.6888 C   0  0  0  0  0  0
    2.6250    0.5472   -2.0606 C   0  0  0  0  0  0
    3.6048    0.3969   -0.8986 C   0  0  0  0  0  0
    2.8447   -0.0613    0.3450 C   0  0  1  0  0  0
    2.5413   -1.5710    0.4474 C   0  0  0  0  0  0
    3.5985   -1.5762    1.5447 C   0  0  0  0  0  0
    3.7499   -0.1397    1.4830 O   0  0  0  0  0  0
    1.6573    0.8682    0.6523 C   0  0  0  0  0  0
   -5.1229   -3.1374    0.1735 H   0  0  0  0  0  0
   -4.0216   -3.8785    1.3507 H   0  0  0  0  0  0
   -4.2737   -4.6376   -0.2300 H   0  0  0  0  0  0
   -2.0981   -3.4667   -0.2013 H   0  0  0  0  0  0
   -3.1960   -2.7241   -1.3660 H   0  0  0  0  0  0
   -3.7850   -0.9656    0.3451 H   0  0  0  0  0  0
   -2.6370   -1.6955    1.4700 H   0  0  0  0  0  0
   -0.7912   -1.3014   -0.1945 H   0  0  0  0  0  0
   -1.9511   -0.5373   -1.2848 H   0  0  0  0  0  0
   -1.1669    0.4412    1.5160 H   0  0  0  0  0  0
   -2.4985    1.1050    0.5827 H   0  0  0  0  0  0
   -1.0240    1.7759   -1.2220 H   0  0  0  0  0  0
    0.3352    3.5590   -0.0113 H   0  0  0  0  0  0
   -0.1054    2.7980    1.5174 H   0  0  0  0  0  0
   -1.5561    4.7313    0.9315 H   0  0  0  0  0  0
   -2.5040    3.2512    1.0734 H   0  0  0  0  0  0
   -2.1000    3.8966   -0.5324 H   0  0  0  0  0  0
    1.7730    2.4698   -1.5264 H   0  0  0  0  0  0
    0.7518    1.4533   -2.5478 H   0  0  0  0  0  0
    3.1459    0.9707   -2.9271 H   0  0  0  0  0  0
    2.2542   -0.4400   -2.3638 H   0  0  0  0  0  0
    4.0886    1.3619   -0.7049 H   0  0  0  0  0  0
    4.3947   -0.3142   -1.1655 H   0  0  0  0  0  0
    1.5368   -1.8307    0.7937 H   0  0  0  0  0  0
    2.7883   -2.1709   -0.4321 H   0  0  0  0  0  0
    3.2512   -1.9042    2.5281 H   0  0  0  0  0  0
    4.5327   -2.0866    1.2926 H   0  0  0  0  0  0
    1.1377    0.5011    1.5448 H   0  0  0  0  0  0
    2.0336    1.8722    0.8904 H   0  0  0  0  0  0
    0.7389    0.8488   -0.5254 N   0  3  1  0  0  0
    0.5095   -0.1285   -0.7408 H   0  0  0  0  0  0
  1  2  1  0  0  0
  1 17  1  0  0  0
  1 18  1  0  0  0
  1 19  1  0  0  0
  2  3  1  0  0  0
  2 20  1  0  0  0
  2 21  1  0  0  0
  3  4  1  0  0  0
  3 22  1  0  0  0
  3 23  1  0  0  0
  4  5  1  0  0  0
  4 24  1  0  0  0
  4 25  1  0  0  0
  5  6  1  0  0  0
  5 26  1  0  0  0
  5 27  1  0  0  0
  6  7  1  0  0  0
  6 28  1  0  0  0
  6 46  1  0  0  0
  7  8  1  0  0  0
  7 29  1  0  0  0
  7 30  1  0  0  0
  8 31  1  0  0  0
  8 32  1  0  0  0
  8 33  1  0  0  0
  9 10  1  0  0  0
  9 34  1  0  0  0
  9 35  1  0  0  0
  9 46  1  0  0  0
 10 11  1  0  0  0
 10 36  1  0  0  0
 10 37  1  0  0  0
 11 12  1  0  0  0
 11 38  1  0  0  0
 11 39  1  0  0  0
 12 13  1  0  0  0
 12 15  1  0  0  0
 12 16  1  0  0  0
 13 14  1  0  0  0
 13 40  1  0  0  0
 13 41  1  0  0  0
 14 15  1  0  0  0
 14 42  1  0  0  0
 14 43  1  0  0  0
 16 44  1  0  0  0
 16 45  1  0  0  0
 16 46  1  0  0  0
 46 47  1  0  0  0
M  CHG  1  46   1
M  END
> <energy>
32.5248

> <chiral flag>
0

> <version>
0

> <i_ionizer_Ion_state_n>
1

> <i_ionizer_Tot_Q>
1

> <s_ionizer_Ion_centers>
46

> <s_ionizer_Ion_types>
N5

> <s_ionizer_Ion_ctrs_in>
9

> <r_ionizer_Ionization_penalty>
0.00148639

> <r_ionizer_Ionization_penalty_charging>
0.00148639

> <r_ionizer_Ionization_penalty_neutral>
0

$$$$
ZINC001258446734
                    3D
 Structure written by MMmdl.
 47 48  0  0  1  0            999 V2000
   -5.1072    2.2435   -0.6454 C   0  0  0  0  0  0
   -3.9496    1.7274    0.1938 C   0  0  0  0  0  0
   -3.2778    0.5174   -0.4550 C   0  0  0  0  0  0
   -2.0925    0.0246    0.3825 C   0  0  0  0  0  0
   -1.4770   -1.2401   -0.2229 C   0  0  0  0  0  0
   -0.1947   -1.8168    0.4368 C   0  0  2  0  0  0
   -0.2263   -1.8821    1.9846 C   0  0  0  0  0  0
    0.2347   -0.6528    2.7551 C   0  0  0  0  0  0
    1.5705   -2.1141   -1.2259 C   0  0  0  0  0  0
    2.7395   -1.4749   -1.9930 C   0  0  0  0  0  0
    3.5700   -0.5780   -1.0855 C   0  0  0  0  0  0
    2.6733    0.5389   -0.5421 C   0  0  1  0  0  0
    3.3065    1.3423    0.6134 C   0  0  0  0  0  0
    3.2515    2.5264   -0.3431 C   0  0  0  0  0  0
    2.7382    1.7067   -1.4147 O   0  0  0  0  0  0
    1.1991    0.1124   -0.3491 C   0  0  0  0  0  0
   -5.8705    1.4711   -0.7829 H   0  0  0  0  0  0
   -4.7619    2.5633   -1.6335 H   0  0  0  0  0  0
   -5.5776    3.1026   -0.1569 H   0  0  0  0  0  0
   -3.2173    2.5323    0.3292 H   0  0  0  0  0  0
   -4.3212    1.4584    1.1889 H   0  0  0  0  0  0
   -2.9295    0.7865   -1.4600 H   0  0  0  0  0  0
   -4.0101   -0.2907   -0.5703 H   0  0  0  0  0  0
   -1.3573    0.8307    0.4478 H   0  0  0  0  0  0
   -2.4406   -0.1900    1.3991 H   0  0  0  0  0  0
   -1.2936   -1.0874   -1.2935 H   0  0  0  0  0  0
   -2.2462   -2.0257   -0.1806 H   0  0  0  0  0  0
   -0.2351   -2.8836    0.1619 H   0  0  0  0  0  0
    0.4176   -2.7153    2.2982 H   0  0  0  0  0  0
   -1.2376   -2.1507    2.3132 H   0  0  0  0  0  0
    0.1202   -0.8255    3.8307 H   0  0  0  0  0  0
   -0.3447    0.2364    2.5025 H   0  0  0  0  0  0
    1.2941   -0.4449    2.5767 H   0  0  0  0  0  0
    0.7569   -2.2888   -1.9407 H   0  0  0  0  0  0
    1.8919   -3.0985   -0.8629 H   0  0  0  0  0  0
    2.3462   -0.8789   -2.8269 H   0  0  0  0  0  0
    3.3703   -2.2596   -2.4259 H   0  0  0  0  0  0
    4.4255   -0.1658   -1.6340 H   0  0  0  0  0  0
    3.9782   -1.1744   -0.2600 H   0  0  0  0  0  0
    2.6980    1.4586    1.5136 H   0  0  0  0  0  0
    4.3190    1.0422    0.9010 H   0  0  0  0  0  0
    2.5435    3.3154   -0.0729 H   0  0  0  0  0  0
    4.2199    2.9634   -0.6003 H   0  0  0  0  0  0
    0.7757    0.7052    0.4646 H   0  0  0  0  0  0
    0.6211    0.3575   -1.2494 H   0  0  0  0  0  0
    1.1638   -1.3529   -0.0323 N   0  3  1  0  0  0
    1.8386   -1.5343    0.7200 H   0  0  0  0  0  0
  1  2  1  0  0  0
  1 17  1  0  0  0
  1 18  1  0  0  0
  1 19  1  0  0  0
  2  3  1  0  0  0
  2 20  1  0  0  0
  2 21  1  0  0  0
  3  4  1  0  0  0
  3 22  1  0  0  0
  3 23  1  0  0  0
  4  5  1  0  0  0
  4 24  1  0  0  0
  4 25  1  0  0  0
  5  6  1  0  0  0
  5 26  1  0  0  0
  5 27  1  0  0  0
  6  7  1  0  0  0
  6 28  1  0  0  0
  6 46  1  0  0  0
  7  8  1  0  0  0
  7 29  1  0  0  0
  7 30  1  0  0  0
  8 31  1  0  0  0
  8 32  1  0  0  0
  8 33  1  0  0  0
  9 10  1  0  0  0
  9 34  1  0  0  0
  9 35  1  0  0  0
  9 46  1  0  0  0
 10 11  1  0  0  0
 10 36  1  0  0  0
 10 37  1  0  0  0
 11 12  1  0  0  0
 11 38  1  0  0  0
 11 39  1  0  0  0
 12 13  1  0  0  0
 12 15  1  0  0  0
 12 16  1  0  0  0
 13 14  1  0  0  0
 13 40  1  0  0  0
 13 41  1  0  0  0
 14 15  1  0  0  0
 14 42  1  0  0  0
 14 43  1  0  0  0
 16 44  1  0  0  0
 16 45  1  0  0  0
 16 46  1  0  0  0
 46 47  1  0  0  0
M  CHG  1  46   1
M  END
> <energy>
47.6473

> <chiral flag>
0

> <version>
0

> <i_ionizer_Ion_state_n>
1

> <i_ionizer_Tot_Q>
1

> <s_ionizer_Ion_centers>
46

> <s_ionizer_Ion_types>
N5

> <s_ionizer_Ion_ctrs_in>
9

> <r_ionizer_Ionization_penalty>
0.00148639

> <r_ionizer_Ionization_penalty_charging>
0.00148639

> <r_ionizer_Ionization_penalty_neutral>
0

$$$$
ZINC001258446736
                    3D
 Structure written by MMmdl.
 44 45  0  0  1  0            999 V2000
   -2.0407    2.1083   -1.2431 C   0  0  0  0  0  0
   -3.2957    1.4275   -0.7777 C   0  0  0  0  0  0
   -4.4147    2.2118   -0.4456 C   0  0  0  0  0  0
   -5.6122    1.6209   -0.0338 C   0  0  0  0  0  0
   -5.7066    0.2342    0.0635 C   0  0  0  0  0  0
   -4.6013   -0.5576   -0.2463 C   0  0  0  0  0  0
   -3.3975    0.0334   -0.6406 C   0  0  0  0  0  0
   -2.3806   -0.8324   -0.9524 O   0  0  0  0  0  0
   -1.2713   -0.7382   -0.0485 C   0  0  0  0  0  0
   -0.7203   -2.1444    0.2055 C   0  0  0  0  0  0
    0.5686   -2.1138    1.0304 C   0  0  0  0  0  0
    2.8364   -1.1419    0.9197 C   0  0  1  0  0  0
    3.6525   -2.3037    1.4850 C   0  0  0  0  0  0
    3.7114   -0.3172   -0.0544 C   0  0  0  0  0  0
    3.0127    0.9276   -0.5323 C   0  0  0  0  0  0
    3.7887    2.0270   -1.2065 C   0  0  0  0  0  0
    3.2329    2.2376    0.1758 C   0  0  0  0  0  0
   -2.2584    3.0949   -1.6699 H   0  0  0  0  0  0
   -1.5462    1.5279   -2.0290 H   0  0  0  0  0  0
   -1.3541    2.2439   -0.4012 H   0  0  0  0  0  0
   -4.3657    3.2973   -0.5189 H   0  0  0  0  0  0
   -6.4744    2.2410    0.1994 H   0  0  0  0  0  0
   -6.6399   -0.2293    0.3713 H   0  0  0  0  0  0
   -4.6733   -1.6403   -0.1804 H   0  0  0  0  0  0
   -0.5071   -0.1072   -0.5154 H   0  0  0  0  0  0
   -1.5645   -0.2916    0.9113 H   0  0  0  0  0  0
   -1.4798   -2.7394    0.7282 H   0  0  0  0  0  0
   -0.5507   -2.6580   -0.7501 H   0  0  0  0  0  0
    0.8035   -3.1226    1.3827 H   0  0  0  0  0  0
    0.4178   -1.4851    1.9144 H   0  0  0  0  0  0
    2.5279   -0.4827    1.7402 H   0  0  0  0  0  0
    3.0722   -2.8840    2.2087 H   0  0  0  0  0  0
    4.5443   -1.9309    2.0021 H   0  0  0  0  0  0
    3.9891   -2.9828    0.6943 H   0  0  0  0  0  0
    3.9910   -0.9233   -0.9259 H   0  0  0  0  0  0
    4.6497   -0.0449    0.4443 H   0  0  0  0  0  0
    2.0228    0.7219   -0.9282 H   0  0  0  0  0  0
    4.8599    1.9049   -1.3185 H   0  0  0  0  0  0
    3.3085    2.5406   -2.0329 H   0  0  0  0  0  0
    2.3807    2.8970    0.2888 H   0  0  0  0  0  0
    3.9301    2.2708    1.0053 H   0  0  0  0  0  0
    1.6452   -1.6031    0.1534 N   0  3  0  0  0  0
    1.9345   -2.3544   -0.4838 H   0  0  0  0  0  0
    1.2788   -0.8140   -0.3918 H   0  0  0  0  0  0
  1  2  1  0  0  0
  1 18  1  0  0  0
  1 19  1  0  0  0
  1 20  1  0  0  0
  2  3  2  0  0  0
  2  7  1  0  0  0
  3  4  1  0  0  0
  3 21  1  0  0  0
  4  5  2  0  0  0
  4 22  1  0  0  0
  5  6  1  0  0  0
  5 23  1  0  0  0
  6  7  2  0  0  0
  6 24  1  0  0  0
  7  8  1  0  0  0
  8  9  1  0  0  0
  9 10  1  0  0  0
  9 25  1  0  0  0
  9 26  1  0  0  0
 10 11  1  0  0  0
 10 27  1  0  0  0
 10 28  1  0  0  0
 11 29  1  0  0  0
 11 30  1  0  0  0
 11 42  1  0  0  0
 12 13  1  0  0  0
 12 14  1  0  0  0
 12 31  1  0  0  0
 12 42  1  0  0  0
 13 32  1  0  0  0
 13 33  1  0  0  0
 13 34  1  0  0  0
 14 15  1  0  0  0
 14 35  1  0  0  0
 14 36  1  0  0  0
 15 16  1  0  0  0
 15 17  1  0  0  0
 15 37  1  0  0  0
 16 17  1  0  0  0
 16 38  1  0  0  0
 16 39  1  0  0  0
 17 40  1  0  0  0
 17 41  1  0  0  0
 42 43  1  0  0  0
 42 44  1  0  0  0
M  CHG  1  42   1
M  END
> <energy>
53.2112

> <chiral flag>
0

> <version>
0

> <i_ionizer_Ion_state_n>
1

> <i_ionizer_Tot_Q>
1

> <s_ionizer_Ion_centers>
42

> <s_ionizer_Ion_types>
N5

> <s_ionizer_Ion_ctrs_in>
12

> <r_ionizer_Ionization_penalty>
0.000148807

> <r_ionizer_Ionization_penalty_charging>
0.000148807

> <r_ionizer_Ionization_penalty_neutral>
0

$$$$
ZINC001258446737
                    3D
 Structure written by MMmdl.
 44 45  0  0  1  0            999 V2000
   -2.0152    0.2006   -2.0793 C   0  0  0  0  0  0
   -2.7754   -0.2783   -0.8775 C   0  0  0  0  0  0
   -3.5101   -1.4704   -0.9488 C   0  0  0  0  0  0
   -4.2006   -1.9484    0.1671 C   0  0  0  0  0  0
   -4.1625   -1.2411    1.3666 C   0  0  0  0  0  0
   -3.4201   -0.0641    1.4576 C   0  0  0  0  0  0
   -2.7113    0.4035    0.3462 C   0  0  0  0  0  0
   -1.9932    1.5704    0.4069 O   0  0  0  0  0  0
   -0.9433    1.5013    1.3798 C   0  0  0  0  0  0
    0.1195    2.5542    1.0546 C   0  0  0  0  0  0
    0.7573    2.3821   -0.3278 C   0  0  0  0  0  0
    2.6546    0.8728    0.1089 C   0  0  2  0  0  0
    3.7771    1.1180   -0.9060 C   0  0  0  0  0  0
    2.7428   -0.5333    0.7468 C   0  0  0  0  0  0
    2.4196   -1.6714   -0.1877 C   0  0  0  0  0  0
    2.0662   -3.0255    0.3754 C   0  0  0  0  0  0
    1.0075   -2.1904   -0.2866 C   0  0  0  0  0  0
   -2.4250   -0.2264   -3.0002 H   0  0  0  0  0  0
   -2.0755    1.2884   -2.1785 H   0  0  0  0  0  0
   -0.9669   -0.0989   -1.9999 H   0  0  0  0  0  0
   -3.5488   -2.0352   -1.8779 H   0  0  0  0  0  0
   -4.7722   -2.8695    0.0964 H   0  0  0  0  0  0
   -4.7131   -1.6052    2.2302 H   0  0  0  0  0  0
   -3.4056    0.4877    2.3923 H   0  0  0  0  0  0
   -1.3615    1.7239    2.3690 H   0  0  0  0  0  0
   -0.4893    0.5030    1.4139 H   0  0  0  0  0  0
    0.8878    2.5411    1.8357 H   0  0  0  0  0  0
   -0.3476    3.5462    1.0835 H   0  0  0  0  0  0
   -0.0174    2.5289   -1.0891 H   0  0  0  0  0  0
    1.4985    3.1698   -0.5045 H   0  0  0  0  0  0
    2.7936    1.5895    0.9272 H   0  0  0  0  0  0
    3.7219    0.4326   -1.7595 H   0  0  0  0  0  0
    4.7568    0.9881   -0.4330 H   0  0  0  0  0  0
    3.7310    2.1406   -1.2997 H   0  0  0  0  0  0
    2.0652   -0.5666    1.6113 H   0  0  0  0  0  0
    3.7542   -0.6855    1.1434 H   0  0  0  0  0  0
    3.0267   -1.6651   -1.0841 H   0  0  0  0  0  0
    2.0131   -3.1451    1.4511 H   0  0  0  0  0  0
    2.4163   -3.9055   -0.1541 H   0  0  0  0  0  0
    0.6464   -2.4899   -1.2635 H   0  0  0  0  0  0
    0.2460   -1.7398    0.3412 H   0  0  0  0  0  0
    1.3279    1.0346   -0.5444 N   0  3  0  0  0  0
    0.6819    0.3363   -0.1579 H   0  0  0  0  0  0
    1.4354    0.8797   -1.5537 H   0  0  0  0  0  0
  1  2  1  0  0  0
  1 18  1  0  0  0
  1 19  1  0  0  0
  1 20  1  0  0  0
  2  3  2  0  0  0
  2  7  1  0  0  0
  3  4  1  0  0  0
  3 21  1  0  0  0
  4  5  2  0  0  0
  4 22  1  0  0  0
  5  6  1  0  0  0
  5 23  1  0  0  0
  6  7  2  0  0  0
  6 24  1  0  0  0
  7  8  1  0  0  0
  8  9  1  0  0  0
  9 10  1  0  0  0
  9 25  1  0  0  0
  9 26  1  0  0  0
 10 11  1  0  0  0
 10 27  1  0  0  0
 10 28  1  0  0  0
 11 29  1  0  0  0
 11 30  1  0  0  0
 11 42  1  0  0  0
 12 13  1  0  0  0
 12 14  1  0  0  0
 12 31  1  0  0  0
 12 42  1  0  0  0
 13 32  1  0  0  0
 13 33  1  0  0  0
 13 34  1  0  0  0
 14 15  1  0  0  0
 14 35  1  0  0  0
 14 36  1  0  0  0
 15 16  1  0  0  0
 15 17  1  0  0  0
 15 37  1  0  0  0
 16 17  1  0  0  0
 16 38  1  0  0  0
 16 39  1  0  0  0
 17 40  1  0  0  0
 17 41  1  0  0  0
 42 43  1  0  0  0
 42 44  1  0  0  0
M  CHG  1  42   1
M  END
> <energy>
53.9714

> <chiral flag>
0

> <version>
0

> <i_ionizer_Ion_state_n>
1

> <i_ionizer_Tot_Q>
1

> <s_ionizer_Ion_centers>
42

> <s_ionizer_Ion_types>
N5

> <s_ionizer_Ion_ctrs_in>
12

> <r_ionizer_Ionization_penalty>
0.000148807

> <r_ionizer_Ionization_penalty_charging>
0.000148807

> <r_ionizer_Ionization_penalty_neutral>
0

$$$$
ZINC001258446738
                    3D
 Structure written by MMmdl.
 47 48  0  0  1  0            999 V2000
   -4.9932   -0.4327    0.0523 C   0  0  0  0  0  0
   -4.1391   -0.4655    1.3116 C   0  0  0  0  0  0
   -3.0662    0.6264    1.3430 C   0  0  0  0  0  0
   -1.9758    0.4200    0.2877 C   0  0  0  0  0  0
   -0.8947    1.5069    0.3750 C   0  0  0  0  0  0
    0.1693    1.3940   -0.7499 C   0  0  1  0  0  0
    1.1907    2.5551   -0.6869 C   0  0  0  0  0  0
    0.5765    3.9209   -0.9707 C   0  0  0  0  0  0
    1.3272   -0.3342   -2.0553 C   0  0  0  0  0  0
    1.7337   -1.8110   -2.0641 C   0  0  0  0  0  0
    2.7740   -2.1120   -0.9904 C   0  0  0  0  0  0
    2.2555   -1.6425    0.3656 C   0  0  2  0  0  0
    3.1727   -1.9826    1.5566 C   0  0  0  0  0  0
    1.9716   -2.7518    2.0947 C   0  0  0  0  0  0
    1.2292   -2.5455    0.8734 O   0  0  0  0  0  0
    1.7746   -0.1773    0.3303 C   0  0  0  0  0  0
   -5.4486    0.5533   -0.0875 H   0  0  0  0  0  0
   -4.4057   -0.6706   -0.8396 H   0  0  0  0  0  0
   -5.7978   -1.1719    0.1227 H   0  0  0  0  0  0
   -3.6712   -1.4521    1.4099 H   0  0  0  0  0  0
   -4.7954   -0.3375    2.1807 H   0  0  0  0  0  0
   -3.5378    1.6079    1.2098 H   0  0  0  0  0  0
   -2.6042    0.6284    2.3384 H   0  0  0  0  0  0
   -2.4166    0.4381   -0.7157 H   0  0  0  0  0  0
   -1.5260   -0.5686    0.4312 H   0  0  0  0  0  0
   -0.4179    1.4780    1.3626 H   0  0  0  0  0  0
   -1.3932    2.4806    0.3017 H   0  0  0  0  0  0
   -0.3880    1.4986   -1.6918 H   0  0  0  0  0  0
    1.9840    2.3920   -1.4263 H   0  0  0  0  0  0
    1.6729    2.5902    0.2972 H   0  0  0  0  0  0
    0.0252    3.9163   -1.9157 H   0  0  0  0  0  0
   -0.1024    4.2322   -0.1718 H   0  0  0  0  0  0
    1.3656    4.6765   -1.0433 H   0  0  0  0  0  0
    0.5633   -0.1978   -2.8301 H   0  0  0  0  0  0
    2.1872    0.2876   -2.3334 H   0  0  0  0  0  0
    0.8434   -2.4326   -1.9024 H   0  0  0  0  0  0
    2.1340   -2.0782   -3.0484 H   0  0  0  0  0  0
    3.7102   -1.5938   -1.2320 H   0  0  0  0  0  0
    2.9933   -3.1858   -0.9788 H   0  0  0  0  0  0
    4.0396   -2.6082    1.3224 H   0  0  0  0  0  0
    3.4927   -1.1397    2.1746 H   0  0  0  0  0  0
    2.1469   -3.8130    2.2893 H   0  0  0  0  0  0
    1.4667   -2.2927    2.9497 H   0  0  0  0  0  0
    1.3330    0.0716    1.3017 H   0  0  0  0  0  0
    2.6494    0.4719    0.1961 H   0  0  0  0  0  0
    0.7412   -0.0036   -0.7389 N   0  3  1  0  0  0
   -0.0264   -0.6592   -0.5514 H   0  0  0  0  0  0
  1  2  1  0  0  0
  1 17  1  0  0  0
  1 18  1  0  0  0
  1 19  1  0  0  0
  2  3  1  0  0  0
  2 20  1  0  0  0
  2 21  1  0  0  0
  3  4  1  0  0  0
  3 22  1  0  0  0
  3 23  1  0  0  0
  4  5  1  0  0  0
  4 24  1  0  0  0
  4 25  1  0  0  0
  5  6  1  0  0  0
  5 26  1  0  0  0
  5 27  1  0  0  0
  6  7  1  0  0  0
  6 28  1  0  0  0
  6 46  1  0  0  0
  7  8  1  0  0  0
  7 29  1  0  0  0
  7 30  1  0  0  0
  8 31  1  0  0  0
  8 32  1  0  0  0
  8 33  1  0  0  0
  9 10  1  0  0  0
  9 34  1  0  0  0
  9 35  1  0  0  0
  9 46  1  0  0  0
 10 11  1  0  0  0
 10 36  1  0  0  0
 10 37  1  0  0  0
 11 12  1  0  0  0
 11 38  1  0  0  0
 11 39  1  0  0  0
 12 13  1  0  0  0
 12 15  1  0  0  0
 12 16  1  0  0  0
 13 14  1  0  0  0
 13 40  1  0  0  0
 13 41  1  0  0  0
 14 15  1  0  0  0
 14 42  1  0  0  0
 14 43  1  0  0  0
 16 44  1  0  0  0
 16 45  1  0  0  0
 16 46  1  0  0  0
 46 47  1  0  0  0
M  CHG  1  46   1
M  END
> <energy>
36.2042

> <chiral flag>
0

> <version>
0

> <i_ionizer_Ion_state_n>
1

> <i_ionizer_Tot_Q>
1

> <s_ionizer_Ion_centers>
46

> <s_ionizer_Ion_types>
N5

> <s_ionizer_Ion_ctrs_in>
9

> <r_ionizer_Ionization_penalty>
0.00148639

> <r_ionizer_Ionization_penalty_charging>
0.00148639

> <r_ionizer_Ionization_penalty_neutral>
0

$$$$
ZINC001258446742
                    3D
 Structure written by MMmdl.
 47 48  0  0  1  0            999 V2000
    2.7137    2.1027   -1.6482 C   0  0  0  0  0  0
    3.1465    0.8074   -2.3263 C   0  0  0  0  0  0
    2.2197   -0.3764   -2.0332 C   0  0  0  0  0  0
    2.3004   -0.8747   -0.5917 C   0  0  0  0  0  0
    1.4253   -2.1034   -0.3015 C   0  0  0  0  0  0
   -0.1175   -1.9680   -0.1768 C   0  0  2  0  0  0
   -0.8299   -1.9359   -1.5536 C   0  0  0  0  0  0
   -2.3288   -2.2179   -1.4631 C   0  0  0  0  0  0
   -0.1945   -1.1959    2.1753 C   0  0  0  0  0  0
   -0.6010   -0.0520    3.1203 C   0  0  0  0  0  0
   -1.9052    0.5879    2.6541 C   0  0  0  0  0  0
   -1.6683    1.2104    1.2761 C   0  0  2  0  0  0
   -1.4286    2.7325    1.2819 C   0  0  0  0  0  0
   -2.7091    2.8119    0.4611 C   0  0  0  0  0  0
   -2.9371    1.3925    0.5809 O   0  0  0  0  0  0
   -0.6523    0.4268    0.4079 C   0  0  0  0  0  0
    3.2425    2.9553   -2.0926 H   0  0  0  0  0  0
    2.9377    2.0888   -0.5771 H   0  0  0  0  0  0
    1.6429    2.2872   -1.7728 H   0  0  0  0  0  0
    3.1433    0.9727   -3.4121 H   0  0  0  0  0  0
    4.1774    0.5641   -2.0455 H   0  0  0  0  0  0
    1.2015   -0.0882   -2.2975 H   0  0  0  0  0  0
    2.4997   -1.2017   -2.7002 H   0  0  0  0  0  0
    3.3429   -1.1757   -0.4073 H   0  0  0  0  0  0
    2.1078   -0.0757    0.1273 H   0  0  0  0  0  0
    1.6447   -2.8746   -1.0541 H   0  0  0  0  0  0
    1.7863   -2.5288    0.6437 H   0  0  0  0  0  0
   -0.4258   -2.9440    0.2371 H   0  0  0  0  0  0
   -0.3883   -2.7015   -2.2052 H   0  0  0  0  0  0
   -0.6930   -0.9815   -2.0682 H   0  0  0  0  0  0
   -2.8650   -1.4149   -0.9471 H   0  0  0  0  0  0
   -2.7536   -2.3059   -2.4687 H   0  0  0  0  0  0
   -2.5200   -3.1566   -0.9365 H   0  0  0  0  0  0
    0.8915   -1.3145    2.2529 H   0  0  0  0  0  0
   -0.6457   -2.1271    2.5418 H   0  0  0  0  0  0
   -0.7048   -0.4342    4.1401 H   0  0  0  0  0  0
    0.1924    0.7106    3.1369 H   0  0  0  0  0  0
   -2.2422    1.3348    3.3795 H   0  0  0  0  0  0
   -2.6864   -0.1797    2.6016 H   0  0  0  0  0  0
   -0.5293    3.0776    0.7649 H   0  0  0  0  0  0
   -1.4896    3.2115    2.2634 H   0  0  0  0  0  0
   -2.5807    3.1158   -0.5834 H   0  0  0  0  0  0
   -3.5208    3.3855    0.9149 H   0  0  0  0  0  0
    0.3382    0.8666    0.5556 H   0  0  0  0  0  0
   -0.9055    0.5725   -0.6444 H   0  0  0  0  0  0
   -0.7554   -1.0153    0.8149 N   0  3  1  0  0  0
   -1.7542   -1.2497    0.8564 H   0  0  0  0  0  0
  1  2  1  0  0  0
  1 17  1  0  0  0
  1 18  1  0  0  0
  1 19  1  0  0  0
  2  3  1  0  0  0
  2 20  1  0  0  0
  2 21  1  0  0  0
  3  4  1  0  0  0
  3 22  1  0  0  0
  3 23  1  0  0  0
  4  5  1  0  0  0
  4 24  1  0  0  0
  4 25  1  0  0  0
  5  6  1  0  0  0
  5 26  1  0  0  0
  5 27  1  0  0  0
  6  7  1  0  0  0
  6 28  1  0  0  0
  6 46  1  0  0  0
  7  8  1  0  0  0
  7 29  1  0  0  0
  7 30  1  0  0  0
  8 31  1  0  0  0
  8 32  1  0  0  0
  8 33  1  0  0  0
  9 10  1  0  0  0
  9 34  1  0  0  0
  9 35  1  0  0  0
  9 46  1  0  0  0
 10 11  1  0  0  0
 10 36  1  0  0  0
 10 37  1  0  0  0
 11 12  1  0  0  0
 11 38  1  0  0  0
 11 39  1  0  0  0
 12 13  1  0  0  0
 12 15  1  0  0  0
 12 16  1  0  0  0
 13 14  1  0  0  0
 13 40  1  0  0  0
 13 41  1  0  0  0
 14 15  1  0  0  0
 14 42  1  0  0  0
 14 43  1  0  0  0
 16 44  1  0  0  0
 16 45  1  0  0  0
 16 46  1  0  0  0
 46 47  1  0  0  0
M  CHG  1  46   1
M  END
> <energy>
49.9019

> <chiral flag>
0

> <version>
0

> <i_ionizer_Ion_state_n>
1

> <i_ionizer_Tot_Q>
1

> <s_ionizer_Ion_centers>
46

> <s_ionizer_Ion_types>
N5

> <s_ionizer_Ion_ctrs_in>
9

> <r_ionizer_Ionization_penalty>
0.00148639

> <r_ionizer_Ionization_penalty_charging>
0.00148639

> <r_ionizer_Ionization_penalty_neutral>
0

$$$$
ZINC001258446789
                    3D
 Structure written by MMmdl.
 47 47  0  0  1  0            999 V2000
   -2.0926    3.3299    1.2791 C   0  0  0  0  0  0
   -3.0839    2.1988    1.0377 C   0  0  0  0  0  0
   -3.1536    1.7632   -0.4301 C   0  0  0  0  0  0
   -1.9501    0.9223   -0.8698 C   0  0  0  0  0  0
   -2.1501   -0.5742   -0.6030 C   0  0  0  0  0  0
   -0.8377   -1.3926   -0.7195 C   0  0  2  0  0  0
   -1.1110   -2.8333   -1.2371 C   0  0  0  0  0  0
   -1.9377   -3.7429   -0.3442 C   0  0  0  0  0  0
   -0.6627   -1.4700    1.7606 C   0  0  0  0  0  0
    1.1193   -0.4464    0.5326 C   0  0  0  0  0  0
    2.1004   -0.4438   -0.6569 C   0  0  0  0  0  0
    3.4041    0.2920   -0.4172 C   0  0  0  0  0  0
    4.5594   -0.1439   -1.0792 C   0  0  0  0  0  0
    5.7419    0.5558   -0.8981 C   0  0  0  0  0  0
    5.8565    1.6493   -0.1152 N   0  0  0  0  0  0
    4.7326    2.0637    0.5027 C   0  0  0  0  0  0
    3.5009    1.4336    0.3794 C   0  0  0  0  0  0
   -2.1570    3.6705    2.3168 H   0  0  0  0  0  0
   -2.3054    4.1847    0.6278 H   0  0  0  0  0  0
   -1.0634    3.0067    1.0981 H   0  0  0  0  0  0
   -4.0783    2.5438    1.3449 H   0  0  0  0  0  0
   -2.8311    1.3482    1.6803 H   0  0  0  0  0  0
   -3.2209    2.6554   -1.0660 H   0  0  0  0  0  0
   -4.0742    1.1884   -0.5903 H   0  0  0  0  0  0
   -1.8107    1.0519   -1.9502 H   0  0  0  0  0  0
   -1.0393    1.2905   -0.3994 H   0  0  0  0  0  0
   -2.6434   -0.7286    0.3625 H   0  0  0  0  0  0
   -2.8690   -0.9411   -1.3475 H   0  0  0  0  0  0
   -0.2750   -0.9435   -1.5474 H   0  0  0  0  0  0
   -0.1511   -3.3273   -1.4456 H   0  0  0  0  0  0
   -1.6234   -2.7544   -2.2041 H   0  0  0  0  0  0
   -2.8729   -3.2651   -0.0357 H   0  0  0  0  0  0
   -1.3813   -4.0464    0.5475 H   0  0  0  0  0  0
   -2.1933   -4.6623   -0.8823 H   0  0  0  0  0  0
   -1.5332   -2.1299    1.7629 H   0  0  0  0  0  0
   -0.9998   -0.4685    2.0500 H   0  0  0  0  0  0
    0.0006   -1.8526    2.5454 H   0  0  0  0  0  0
    0.6892    0.5534    0.6580 H   0  0  0  0  0  0
    1.7071   -0.6415    1.4406 H   0  0  0  0  0  0
    2.3327   -1.4846   -0.9169 H   0  0  0  0  0  0
    1.6309    0.0193   -1.5331 H   0  0  0  0  0  0
    4.5379   -1.0113   -1.7314 H   0  0  0  0  0  0
    6.6560    0.2439   -1.3981 H   0  0  0  0  0  0
    4.8471    2.9485    1.1196 H   0  0  0  0  0  0
    2.6446    1.8463    0.8988 H   0  0  0  0  0  0
    0.0894   -1.5156    0.4891 N   0  3  2  0  0  0
    0.5671   -2.4222    0.4242 H   0  0  0  0  0  0
  1  2  1  0  0  0
  1 18  1  0  0  0
  1 19  1  0  0  0
  1 20  1  0  0  0
  2  3  1  0  0  0
  2 21  1  0  0  0
  2 22  1  0  0  0
  3  4  1  0  0  0
  3 23  1  0  0  0
  3 24  1  0  0  0
  4  5  1  0  0  0
  4 25  1  0  0  0
  4 26  1  0  0  0
  5  6  1  0  0  0
  5 27  1  0  0  0
  5 28  1  0  0  0
  6  7  1  0  0  0
  6 29  1  0  0  0
  6 46  1  0  0  0
  7  8  1  0  0  0
  7 30  1  0  0  0
  7 31  1  0  0  0
  8 32  1  0  0  0
  8 33  1  0  0  0
  8 34  1  0  0  0
  9 35  1  0  0  0
  9 36  1  0  0  0
  9 37  1  0  0  0
  9 46  1  0  0  0
 10 11  1  0  0  0
 10 38  1  0  0  0
 10 39  1  0  0  0
 10 46  1  0  0  0
 11 12  1  0  0  0
 11 40  1  0  0  0
 11 41  1  0  0  0
 12 13  2  0  0  0
 12 17  1  0  0  0
 13 14  1  0  0  0
 13 42  1  0  0  0
 14 15  2  0  0  0
 14 43  1  0  0  0
 15 16  1  0  0  0
 16 17  2  0  0  0
 16 44  1  0  0  0
 17 45  1  0  0  0
 46 47  1  0  0  0
M  CHG  1  46   1
M  END
> <energy>
48.6994

> <chiral flag>
0

> <version>
0

> <i_ionizer_Ion_state_n>
1

> <i_ionizer_Tot_Q>
1

> <s_ionizer_Ion_centers>
46

> <s_ionizer_Ion_types>
N5

> <s_ionizer_Ion_ctrs_in>
9

> <r_ionizer_Ionization_penalty>
0.00889878

> <r_ionizer_Ionization_penalty_charging>
0.00148639

> <r_ionizer_Ionization_penalty_neutral>
0.00741239

$$$$
ZINC001258446790
                    3D
 Structure written by MMmdl.
 47 47  0  0  1  0            999 V2000
   -1.7492   -2.5227    3.3814 C   0  0  0  0  0  0
   -2.4641   -2.0904    2.1119 C   0  0  0  0  0  0
   -2.2567   -0.5943    1.8555 C   0  0  0  0  0  0
   -2.8841   -0.1682    0.5335 C   0  0  0  0  0  0
   -2.6053    1.2841    0.1064 C   0  0  0  0  0  0
   -1.1524    1.6549   -0.3232 C   0  0  1  0  0  0
   -0.2374    2.0887    0.8429 C   0  0  0  0  0  0
   -0.7388    3.2980    1.6262 C   0  0  0  0  0  0
   -0.8091    0.8613   -2.6263 C   0  0  0  0  0  0
    0.5665   -0.1608   -0.8730 C   0  0  0  0  0  0
    1.9323    0.5047   -1.1436 C   0  0  0  0  0  0
    3.0225   -0.4932   -1.4654 C   0  0  0  0  0  0
    3.3804   -1.5047   -0.5697 C   0  0  0  0  0  0
    4.3812   -2.3953   -0.9289 C   0  0  0  0  0  0
    5.0516   -2.3406   -2.0994 N   0  0  0  0  0  0
    4.7007   -1.3541   -2.9489 C   0  0  0  0  0  0
    3.7140   -0.4184   -2.6803 C   0  0  0  0  0  0
   -0.6724   -2.3503    3.2932 H   0  0  0  0  0  0
   -2.1164   -1.9626    4.2470 H   0  0  0  0  0  0
   -1.9108   -3.5885    3.5652 H   0  0  0  0  0  0
   -2.0703   -2.6664    1.2644 H   0  0  0  0  0  0
   -3.5337   -2.3158    2.1943 H   0  0  0  0  0  0
   -2.6890   -0.0072    2.6734 H   0  0  0  0  0  0
   -1.1846   -0.4018    1.8547 H   0  0  0  0  0  0
   -2.5796   -0.8592   -0.2611 H   0  0  0  0  0  0
   -3.9720   -0.2878    0.6219 H   0  0  0  0  0  0
   -2.9712    1.9672    0.8808 H   0  0  0  0  0  0
   -3.2532    1.4695   -0.7636 H   0  0  0  0  0  0
   -1.2570    2.5698   -0.9272 H   0  0  0  0  0  0
    0.7301    2.3860    0.4320 H   0  0  0  0  0  0
   -0.0485    1.2743    1.5437 H   0  0  0  0  0  0
   -0.9829    4.1278    0.9554 H   0  0  0  0  0  0
    0.0453    3.6467    2.3094 H   0  0  0  0  0  0
   -1.6165    3.0550    2.2332 H   0  0  0  0  0  0
   -0.6000   -0.0359   -3.2216 H   0  0  0  0  0  0
   -0.1515    1.6651   -2.9701 H   0  0  0  0  0  0
   -1.8417    1.1511   -2.8531 H   0  0  0  0  0  0
    0.5258   -0.4857    0.1737 H   0  0  0  0  0  0
    0.5107   -1.1005   -1.4386 H   0  0  0  0  0  0
    1.8562    1.2264   -1.9631 H   0  0  0  0  0  0
    2.2630    1.0765   -0.2686 H   0  0  0  0  0  0
    2.8855   -1.6093    0.3928 H   0  0  0  0  0  0
    4.6798   -3.2006   -0.2625 H   0  0  0  0  0  0
    5.2538   -1.3348   -3.8856 H   0  0  0  0  0  0
    3.4891    0.3467   -3.4144 H   0  0  0  0  0  0
   -0.7628    0.4790   -1.2079 N   0  3  1  0  0  0
   -1.4778   -0.2436   -1.0636 H   0  0  0  0  0  0
  1  2  1  0  0  0
  1 18  1  0  0  0
  1 19  1  0  0  0
  1 20  1  0  0  0
  2  3  1  0  0  0
  2 21  1  0  0  0
  2 22  1  0  0  0
  3  4  1  0  0  0
  3 23  1  0  0  0
  3 24  1  0  0  0
  4  5  1  0  0  0
  4 25  1  0  0  0
  4 26  1  0  0  0
  5  6  1  0  0  0
  5 27  1  0  0  0
  5 28  1  0  0  0
  6  7  1  0  0  0
  6 29  1  0  0  0
  6 46  1  0  0  0
  7  8  1  0  0  0
  7 30  1  0  0  0
  7 31  1  0  0  0
  8 32  1  0  0  0
  8 33  1  0  0  0
  8 34  1  0  0  0
  9 35  1  0  0  0
  9 36  1  0  0  0
  9 37  1  0  0  0
  9 46  1  0  0  0
 10 11  1  0  0  0
 10 38  1  0  0  0
 10 39  1  0  0  0
 10 46  1  0  0  0
 11 12  1  0  0  0
 11 40  1  0  0  0
 11 41  1  0  0  0
 12 13  2  0  0  0
 12 17  1  0  0  0
 13 14  1  0  0  0
 13 42  1  0  0  0
 14 15  2  0  0  0
 14 43  1  0  0  0
 15 16  1  0  0  0
 16 17  2  0  0  0
 16 44  1  0  0  0
 17 45  1  0  0  0
 46 47  1  0  0  0
M  CHG  1  46   1
M  END
> <energy>
51.3238

> <chiral flag>
0

> <version>
0

> <i_ionizer_Ion_state_n>
1

> <i_ionizer_Tot_Q>
1

> <s_ionizer_Ion_centers>
46

> <s_ionizer_Ion_types>
N5

> <s_ionizer_Ion_ctrs_in>
9

> <r_ionizer_Ionization_penalty>
0.00889878

> <r_ionizer_Ionization_penalty_charging>
0.00148639

> <r_ionizer_Ionization_penalty_neutral>
0.00741239

$$$$
ZINC001258446822
                    3D
 Structure written by MMmdl.
 47 48  0  0  1  0            999 V2000
   -4.6785   -0.5069    0.7391 C   0  0  0  0  0  0
   -4.7271    0.9008    0.1613 C   0  0  0  0  0  0
   -3.3389    1.5295    0.0110 C   0  0  0  0  0  0
   -2.5392    0.9226   -1.1458 C   0  0  0  0  0  0
   -1.1450    1.5412   -1.3097 C   0  0  0  0  0  0
   -0.1635    1.1651   -0.1552 C   0  0  2  0  0  0
    0.0978    2.4321    0.7003 C   0  0  0  0  0  0
    0.4548    2.1233    2.1507 C   0  0  0  0  0  0
    0.7028   -0.9190   -1.1037 C   0  0  0  0  0  0
    1.9561   -1.7008   -1.4903 C   0  0  0  0  0  0
    2.8973   -1.7593   -0.2849 C   0  0  1  0  0  0
    2.9186   -3.0931    0.4952 C   0  0  0  0  0  0
    4.2562   -3.3278   -0.1948 C   0  0  0  0  0  0
    4.2651   -1.9884   -0.7372 O   0  0  0  0  0  0
    2.8203   -0.5200    0.6105 C   0  0  0  0  0  0
    2.3442    0.6769   -0.2083 C   0  0  0  0  0  0
   -5.6935   -0.8924    0.8768 H   0  0  0  0  0  0
   -4.1796   -0.5123    1.7143 H   0  0  0  0  0  0
   -4.1468   -1.1973    0.0779 H   0  0  0  0  0  0
   -5.3263    1.5303    0.8304 H   0  0  0  0  0  0
   -5.2427    0.8838   -0.8064 H   0  0  0  0  0  0
   -2.7940    1.4281    0.9559 H   0  0  0  0  0  0
   -3.4624    2.6050   -0.1714 H   0  0  0  0  0  0
   -3.0977    1.0825   -2.0769 H   0  0  0  0  0  0
   -2.4364   -0.1609   -1.0214 H   0  0  0  0  0  0
   -0.7546    1.2025   -2.2790 H   0  0  0  0  0  0
   -1.2341    2.6295   -1.4169 H   0  0  0  0  0  0
   -0.6561    0.4482    0.5150 H   0  0  0  0  0  0
    0.8637    3.0655    0.2374 H   0  0  0  0  0  0
   -0.8093    3.0496    0.7320 H   0  0  0  0  0  0
   -0.3799    1.6234    2.6525 H   0  0  0  0  0  0
    1.3324    1.4831    2.2461 H   0  0  0  0  0  0
    0.6565    3.0535    2.6910 H   0  0  0  0  0  0
    0.2316   -1.4239   -0.2501 H   0  0  0  0  0  0
   -0.0051   -0.9594   -1.9381 H   0  0  0  0  0  0
    2.4445   -1.2123   -2.3440 H   0  0  0  0  0  0
    1.6815   -2.7080   -1.8243 H   0  0  0  0  0  0
    2.9893   -3.0039    1.5833 H   0  0  0  0  0  0
    2.1359   -3.8125    0.2410 H   0  0  0  0  0  0
    5.1033   -3.5000    0.4742 H   0  0  0  0  0  0
    4.2506   -4.0792   -0.9891 H   0  0  0  0  0  0
    2.1221   -0.6927    1.4396 H   0  0  0  0  0  0
    3.7953   -0.3044    1.0626 H   0  0  0  0  0  0
    2.4550    1.5954    0.3688 H   0  0  0  0  0  0
    3.0326    0.8145   -1.0533 H   0  0  0  0  0  0
    0.9969    0.5113   -0.8902 N   0  3  2  0  0  0
    1.0669    0.9616   -1.8103 H   0  0  0  0  0  0
  1  2  1  0  0  0
  1 17  1  0  0  0
  1 18  1  0  0  0
  1 19  1  0  0  0
  2  3  1  0  0  0
  2 20  1  0  0  0
  2 21  1  0  0  0
  3  4  1  0  0  0
  3 22  1  0  0  0
  3 23  1  0  0  0
  4  5  1  0  0  0
  4 24  1  0  0  0
  4 25  1  0  0  0
  5  6  1  0  0  0
  5 26  1  0  0  0
  5 27  1  0  0  0
  6  7  1  0  0  0
  6 28  1  0  0  0
  6 46  1  0  0  0
  7  8  1  0  0  0
  7 29  1  0  0  0
  7 30  1  0  0  0
  8 31  1  0  0  0
  8 32  1  0  0  0
  8 33  1  0  0  0
  9 10  1  0  0  0
  9 34  1  0  0  0
  9 35  1  0  0  0
  9 46  1  0  0  0
 10 11  1  0  0  0
 10 36  1  0  0  0
 10 37  1  0  0  0
 11 12  1  0  0  0
 11 14  1  0  0  0
 11 15  1  0  0  0
 12 13  1  0  0  0
 12 38  1  0  0  0
 12 39  1  0  0  0
 13 14  1  0  0  0
 13 40  1  0  0  0
 13 41  1  0  0  0
 15 16  1  0  0  0
 15 42  1  0  0  0
 15 43  1  0  0  0
 16 44  1  0  0  0
 16 45  1  0  0  0
 16 46  1  0  0  0
 46 47  1  0  0  0
M  CHG  1  46   1
M  END
> <energy>
31.9094

> <chiral flag>
0

> <version>
0

> <i_ionizer_Ion_state_n>
1

> <i_ionizer_Tot_Q>
1

> <s_ionizer_Ion_centers>
46

> <s_ionizer_Ion_types>
N5

> <s_ionizer_Ion_ctrs_in>
9

> <r_ionizer_Ionization_penalty>
0.00148639

> <r_ionizer_Ionization_penalty_charging>
0.00148639

> <r_ionizer_Ionization_penalty_neutral>
0

$$$$
ZINC001258446826
                    3D
 Structure written by MMmdl.
 47 48  0  0  1  0            999 V2000
   -4.7614   -1.9453   -0.1403 C   0  0  0  0  0  0
   -4.4653   -0.9159    0.9420 C   0  0  0  0  0  0
   -3.0825   -1.1074    1.5743 C   0  0  0  0  0  0
   -1.9067   -0.7045    0.6728 C   0  0  0  0  0  0
   -1.7102    0.8145    0.6061 C   0  0  0  0  0  0
   -0.6912    1.3069   -0.4571 C   0  0  1  0  0  0
   -0.6700    2.8590   -0.4245 C   0  0  0  0  0  0
    0.2370    3.4896   -1.4742 C   0  0  0  0  0  0
    1.3172    0.7860    0.9484 C   0  0  0  0  0  0
    2.8162    0.5139    0.7911 C   0  0  0  0  0  0
    3.0698   -0.8027    0.0501 C   0  0  1  0  0  0
    4.2657   -0.7735   -0.9342 C   0  0  0  0  0  0
    4.8255   -1.9089   -0.0881 C   0  0  0  0  0  0
    3.7945   -1.7371    0.9082 O   0  0  0  0  0  0
    1.8018   -1.4714   -0.4693 C   0  0  0  0  0  0
    0.9117   -0.4397   -1.1572 C   0  0  0  0  0  0
   -5.7951   -1.8413   -0.4886 H   0  0  0  0  0  0
   -4.6362   -2.9630    0.2464 H   0  0  0  0  0  0
   -4.1039   -1.8243   -1.0057 H   0  0  0  0  0  0
   -5.2236   -1.0169    1.7273 H   0  0  0  0  0  0
   -4.5758    0.0923    0.5322 H   0  0  0  0  0  0
   -2.9668   -2.1637    1.8494 H   0  0  0  0  0  0
   -3.0352   -0.5381    2.5111 H   0  0  0  0  0  0
   -2.0440   -1.1146   -0.3318 H   0  0  0  0  0  0
   -1.0024   -1.1617    1.0895 H   0  0  0  0  0  0
   -1.4260    1.1884    1.5983 H   0  0  0  0  0  0
   -2.6730    1.2851    0.3742 H   0  0  0  0  0  0
   -1.0973    1.0458   -1.4440 H   0  0  0  0  0  0
   -1.6891    3.2285   -0.5989 H   0  0  0  0  0  0
   -0.3804    3.2217    0.5673 H   0  0  0  0  0  0
    0.1575    4.5808   -1.4289 H   0  0  0  0  0  0
   -0.0496    3.1728   -2.4805 H   0  0  0  0  0  0
    1.2859    3.2260   -1.3121 H   0  0  0  0  0  0
    0.8715    0.0536    1.6280 H   0  0  0  0  0  0
    1.2063    1.7670    1.4232 H   0  0  0  0  0  0
    3.2949    0.5101    1.7785 H   0  0  0  0  0  0
    3.2629    1.3504    0.2366 H   0  0  0  0  0  0
    4.0463   -1.0421   -1.9718 H   0  0  0  0  0  0
    4.8832    0.1296   -0.9187 H   0  0  0  0  0  0
    5.8235   -1.7364    0.3236 H   0  0  0  0  0  0
    4.7804   -2.9027   -0.5446 H   0  0  0  0  0  0
    2.0399   -2.2793   -1.1711 H   0  0  0  0  0  0
    1.2550   -1.9375    0.3585 H   0  0  0  0  0  0
    1.3871   -0.1234   -2.0946 H   0  0  0  0  0  0
   -0.0219   -0.9375   -1.4411 H   0  0  0  0  0  0
    0.7462    0.8548   -0.4419 N   0  3  1  0  0  0
    1.2887    1.5590   -0.9557 H   0  0  0  0  0  0
  1  2  1  0  0  0
  1 17  1  0  0  0
  1 18  1  0  0  0
  1 19  1  0  0  0
  2  3  1  0  0  0
  2 20  1  0  0  0
  2 21  1  0  0  0
  3  4  1  0  0  0
  3 22  1  0  0  0
  3 23  1  0  0  0
  4  5  1  0  0  0
  4 24  1  0  0  0
  4 25  1  0  0  0
  5  6  1  0  0  0
  5 26  1  0  0  0
  5 27  1  0  0  0
  6  7  1  0  0  0
  6 28  1  0  0  0
  6 46  1  0  0  0
  7  8  1  0  0  0
  7 29  1  0  0  0
  7 30  1  0  0  0
  8 31  1  0  0  0
  8 32  1  0  0  0
  8 33  1  0  0  0
  9 10  1  0  0  0
  9 34  1  0  0  0
  9 35  1  0  0  0
  9 46  1  0  0  0
 10 11  1  0  0  0
 10 36  1  0  0  0
 10 37  1  0  0  0
 11 12  1  0  0  0
 11 14  1  0  0  0
 11 15  1  0  0  0
 12 13  1  0  0  0
 12 38  1  0  0  0
 12 39  1  0  0  0
 13 14  1  0  0  0
 13 40  1  0  0  0
 13 41  1  0  0  0
 15 16  1  0  0  0
 15 42  1  0  0  0
 15 43  1  0  0  0
 16 44  1  0  0  0
 16 45  1  0  0  0
 16 46  1  0  0  0
 46 47  1  0  0  0
M  CHG  1  46   1
M  END
> <energy>
22.7463

> <chiral flag>
0

> <version>
0

> <i_ionizer_Ion_state_n>
1

> <i_ionizer_Tot_Q>
1

> <s_ionizer_Ion_centers>
46

> <s_ionizer_Ion_types>
N5

> <s_ionizer_Ion_ctrs_in>
9

> <r_ionizer_Ionization_penalty>
0.00148639

> <r_ionizer_Ionization_penalty_charging>
0.00148639

> <r_ionizer_Ionization_penalty_neutral>
0

$$$$
ZINC001258446846
                    3D
 Structure written by MMmdl.
 49 49  0  0  1  0            999 V2000
   -3.7653    2.6592   -1.5601 C   0  0  0  0  0  0
   -2.7473    1.8424   -0.7794 C   0  0  0  0  0  0
   -3.4321    0.8982    0.2129 C   0  0  0  0  0  0
   -2.4302    0.0387    0.9864 C   0  0  0  0  0  0
   -1.9187   -1.1588    0.1700 C   0  0  0  0  0  0
   -0.7666   -1.9217    0.8820 C   0  0  1  0  0  0
   -0.3498   -3.2014    0.1172 C   0  0  0  0  0  0
   -1.4578   -4.2444    0.0198 C   0  0  0  0  0  0
    1.2133   -1.4546    2.2463 C   0  0  0  0  0  0
    1.1512   -0.6093   -0.0351 C   0  0  0  0  0  0
    1.6698    0.8509    0.0414 C   0  0  2  0  0  0
    2.0570    1.3795   -1.3576 C   0  0  0  0  0  0
    3.5608    1.3335   -1.5854 C   0  0  0  0  0  0
    4.3022    2.0991   -0.4888 C   0  0  0  0  0  0
    3.5164    2.1306    0.8154 C   0  0  0  0  0  0
    2.7832    0.9194    0.9506 O   0  0  0  0  0  0
   -3.2556    3.3617   -2.2262 H   0  0  0  0  0  0
   -4.4088    3.2329   -0.8863 H   0  0  0  0  0  0
   -4.4002    2.0097   -2.1709 H   0  0  0  0  0  0
   -2.0796    2.5221   -0.2361 H   0  0  0  0  0  0
   -2.1280    1.2795   -1.4849 H   0  0  0  0  0  0
   -3.9973    1.5038    0.9327 H   0  0  0  0  0  0
   -4.1557    0.2592   -0.3055 H   0  0  0  0  0  0
   -2.9237   -0.3491    1.8866 H   0  0  0  0  0  0
   -1.6054    0.6728    1.3268 H   0  0  0  0  0  0
   -1.6046   -0.8400   -0.8294 H   0  0  0  0  0  0
   -2.7678   -1.8348    0.0139 H   0  0  0  0  0  0
   -1.1795   -2.2391    1.8503 H   0  0  0  0  0  0
   -0.0163   -2.9574   -0.8983 H   0  0  0  0  0  0
    0.4993   -3.6727    0.6258 H   0  0  0  0  0  0
   -1.8745   -4.4742    1.0056 H   0  0  0  0  0  0
   -2.2709   -3.9138   -0.6321 H   0  0  0  0  0  0
   -1.0593   -5.1719   -0.4031 H   0  0  0  0  0  0
    0.6158   -1.6899    3.1342 H   0  0  0  0  0  0
    1.9118   -0.6755    2.5628 H   0  0  0  0  0  0
    1.7941   -2.3434    1.9810 H   0  0  0  0  0  0
    0.5230   -0.6773   -0.9288 H   0  0  0  0  0  0
    1.9851   -1.3060   -0.1866 H   0  0  0  0  0  0
    0.8630    1.4826    0.4368 H   0  0  0  0  0  0
    1.7314    2.4255   -1.4343 H   0  0  0  0  0  0
    1.5273    0.8478   -2.1553 H   0  0  0  0  0  0
    3.8168    1.7477   -2.5672 H   0  0  0  0  0  0
    3.8930    0.2871   -1.5860 H   0  0  0  0  0  0
    5.2714    1.6118   -0.3268 H   0  0  0  0  0  0
    4.5228    3.1244   -0.8062 H   0  0  0  0  0  0
    2.8312    2.9866    0.8522 H   0  0  0  0  0  0
    4.1980    2.2238    1.6667 H   0  0  0  0  0  0
    0.3349   -0.9338    1.1852 N   0  3  1  0  0  0
   -0.0997   -0.0658    1.5198 H   0  0  0  0  0  0
  1  2  1  0  0  0
  1 17  1  0  0  0
  1 18  1  0  0  0
  1 19  1  0  0  0
  2  3  1  0  0  0
  2 20  1  0  0  0
  2 21  1  0  0  0
  3  4  1  0  0  0
  3 22  1  0  0  0
  3 23  1  0  0  0
  4  5  1  0  0  0
  4 24  1  0  0  0
  4 25  1  0  0  0
  5  6  1  0  0  0
  5 26  1  0  0  0
  5 27  1  0  0  0
  6  7  1  0  0  0
  6 28  1  0  0  0
  6 48  1  0  0  0
  7  8  1  0  0  0
  7 29  1  0  0  0
  7 30  1  0  0  0
  8 31  1  0  0  0
  8 32  1  0  0  0
  8 33  1  0  0  0
  9 34  1  0  0  0
  9 35  1  0  0  0
  9 36  1  0  0  0
  9 48  1  0  0  0
 10 11  1  0  0  0
 10 37  1  0  0  0
 10 38  1  0  0  0
 10 48  1  0  0  0
 11 12  1  0  0  0
 11 16  1  0  0  0
 11 39  1  0  0  0
 12 13  1  0  0  0
 12 40  1  0  0  0
 12 41  1  0  0  0
 13 14  1  0  0  0
 13 42  1  0  0  0
 13 43  1  0  0  0
 14 15  1  0  0  0
 14 44  1  0  0  0
 14 45  1  0  0  0
 15 16  1  0  0  0
 15 46  1  0  0  0
 15 47  1  0  0  0
 48 49  1  0  0  0
M  CHG  1  48   1
M  END
> <energy>
46.2263

> <chiral flag>
0

> <version>
0

> <i_ionizer_Ion_state_n>
1

> <i_ionizer_Tot_Q>
1

> <s_ionizer_Ion_centers>
48

> <s_ionizer_Ion_types>
N5

> <s_ionizer_Ion_ctrs_in>
9

> <r_ionizer_Ionization_penalty>
0.00148639

> <r_ionizer_Ionization_penalty_charging>
0.00148639

> <r_ionizer_Ionization_penalty_neutral>
0

$$$$
ZINC001258446847
                    3D
 Structure written by MMmdl.
 49 49  0  0  1  0            999 V2000
   -3.1142    3.1258   -0.0776 C   0  0  0  0  0  0
   -3.0586    1.6125   -0.2284 C   0  0  0  0  0  0
   -3.1018    0.9239    1.1363 C   0  0  0  0  0  0
   -3.1594   -0.6042    1.0408 C   0  0  0  0  0  0
   -1.8243   -1.3284    1.2599 C   0  0  0  0  0  0
   -0.7835   -1.2815    0.1102 C   0  0  2  0  0  0
   -1.3013   -2.0285   -1.1450 C   0  0  0  0  0  0
   -0.3953   -1.8682   -2.3616 C   0  0  0  0  0  0
    0.4595   -3.0896    1.2722 C   0  0  0  0  0  0
    1.4396   -0.8813    1.1491 C   0  0  0  0  0  0
    2.2332   -0.0437    0.1157 C   0  0  2  0  0  0
    3.5148    0.5292    0.7327 C   0  0  0  0  0  0
    4.2905    1.3218   -0.3169 C   0  0  0  0  0  0
    3.3954    2.3591   -0.9853 C   0  0  0  0  0  0
    2.0692    1.7504   -1.4276 C   0  0  0  0  0  0
    1.4356    1.0530   -0.3555 O   0  0  0  0  0  0
   -4.0453    3.4389    0.4079 H   0  0  0  0  0  0
   -2.2757    3.4891    0.5260 H   0  0  0  0  0  0
   -3.0706    3.6098   -1.0578 H   0  0  0  0  0  0
   -2.1500    1.3412   -0.7741 H   0  0  0  0  0  0
   -3.9127    1.2917   -0.8377 H   0  0  0  0  0  0
   -4.0152    1.2594    1.6487 H   0  0  0  0  0  0
   -2.2569    1.2504    1.7580 H   0  0  0  0  0  0
   -3.6380   -0.9193    0.1082 H   0  0  0  0  0  0
   -3.8263   -0.9470    1.8454 H   0  0  0  0  0  0
   -2.0758   -2.3784    1.4552 H   0  0  0  0  0  0
   -1.3731   -0.9415    2.1832 H   0  0  0  0  0  0
   -0.6465   -0.2387   -0.1873 H   0  0  0  0  0  0
   -2.2928   -1.6576   -1.4224 H   0  0  0  0  0  0
   -1.4232   -3.0968   -0.9346 H   0  0  0  0  0  0
   -0.8209   -2.4071   -3.2143 H   0  0  0  0  0  0
   -0.2977   -0.8160   -2.6430 H   0  0  0  0  0  0
    0.6051   -2.2707   -2.1816 H   0  0  0  0  0  0
    1.4450   -3.5685    1.3236 H   0  0  0  0  0  0
   -0.2067   -3.8226    0.8067 H   0  0  0  0  0  0
    0.1137   -2.9132    2.2979 H   0  0  0  0  0  0
    0.8893   -0.2397    1.8467 H   0  0  0  0  0  0
    2.1779   -1.4376    1.7428 H   0  0  0  0  0  0
    2.4970   -0.6918   -0.7313 H   0  0  0  0  0  0
    3.2657    1.2022    1.5614 H   0  0  0  0  0  0
    4.1505   -0.2672    1.1325 H   0  0  0  0  0  0
    4.6817    0.6339   -1.0766 H   0  0  0  0  0  0
    5.1555    1.8140    0.1416 H   0  0  0  0  0  0
    3.9110    2.8078   -1.8430 H   0  0  0  0  0  0
    3.1965    3.1608   -0.2633 H   0  0  0  0  0  0
    1.3904    2.5495   -1.7526 H   0  0  0  0  0  0
    2.2108    1.0694   -2.2760 H   0  0  0  0  0  0
    0.5832   -1.8655    0.4396 N   0  3  2  0  0  0
    1.0423   -2.1177   -0.4435 H   0  0  0  0  0  0
  1  2  1  0  0  0
  1 17  1  0  0  0
  1 18  1  0  0  0
  1 19  1  0  0  0
  2  3  1  0  0  0
  2 20  1  0  0  0
  2 21  1  0  0  0
  3  4  1  0  0  0
  3 22  1  0  0  0
  3 23  1  0  0  0
  4  5  1  0  0  0
  4 24  1  0  0  0
  4 25  1  0  0  0
  5  6  1  0  0  0
  5 26  1  0  0  0
  5 27  1  0  0  0
  6  7  1  0  0  0
  6 28  1  0  0  0
  6 48  1  0  0  0
  7  8  1  0  0  0
  7 29  1  0  0  0
  7 30  1  0  0  0
  8 31  1  0  0  0
  8 32  1  0  0  0
  8 33  1  0  0  0
  9 34  1  0  0  0
  9 35  1  0  0  0
  9 36  1  0  0  0
  9 48  1  0  0  0
 10 11  1  0  0  0
 10 37  1  0  0  0
 10 38  1  0  0  0
 10 48  1  0  0  0
 11 12  1  0  0  0
 11 16  1  0  0  0
 11 39  1  0  0  0
 12 13  1  0  0  0
 12 40  1  0  0  0
 12 41  1  0  0  0
 13 14  1  0  0  0
 13 42  1  0  0  0
 13 43  1  0  0  0
 14 15  1  0  0  0
 14 44  1  0  0  0
 14 45  1  0  0  0
 15 16  1  0  0  0
 15 46  1  0  0  0
 15 47  1  0  0  0
 48 49  1  0  0  0
M  CHG  1  48   1
M  END
> <energy>
42.4337

> <chiral flag>
0

> <version>
0

> <i_ionizer_Ion_state_n>
1

> <i_ionizer_Tot_Q>
1

> <s_ionizer_Ion_centers>
48

> <s_ionizer_Ion_types>
N5

> <s_ionizer_Ion_ctrs_in>
9

> <r_ionizer_Ionization_penalty>
0.00148639

> <r_ionizer_Ionization_penalty_charging>
0.00148639

> <r_ionizer_Ionization_penalty_neutral>
0

$$$$
ZINC001258446848
                    3D
 Structure written by MMmdl.
 49 49  0  0  1  0            999 V2000
   -3.6476    1.9420    1.2537 C   0  0  0  0  0  0
   -4.3330    0.7669    0.5720 C   0  0  0  0  0  0
   -3.4013   -0.0657   -0.3107 C   0  0  0  0  0  0
   -2.2976   -0.7847    0.4692 C   0  0  0  0  0  0
   -1.4840   -1.7044   -0.4544 C   0  0  0  0  0  0
   -0.2042   -2.2810    0.2206 C   0  0  1  0  0  0
    0.4223   -3.3478   -0.7146 C   0  0  0  0  0  0
    1.6355   -4.0829   -0.1630 C   0  0  0  0  0  0
    1.4567   -1.4274    1.8312 C   0  0  0  0  0  0
    1.3557   -0.4290   -0.4157 C   0  0  0  0  0  0
    1.1606    1.1044   -0.2863 C   0  0  1  0  0  0
    2.2732    1.8128    0.5068 C   0  0  0  0  0  0
    3.2639    2.5234   -0.4077 C   0  0  0  0  0  0
    2.5531    3.4836   -1.3622 C   0  0  0  0  0  0
    1.1047    3.0774   -1.6080 C   0  0  0  0  0  0
    1.0168    1.6571   -1.6133 O   0  0  0  0  0  0
   -2.8897    1.6106    1.9703 H   0  0  0  0  0  0
   -3.1668    2.5977    0.5223 H   0  0  0  0  0  0
   -4.3853    2.5323    1.8061 H   0  0  0  0  0  0
   -4.7953    0.1249    1.3294 H   0  0  0  0  0  0
   -5.1455    1.1557   -0.0529 H   0  0  0  0  0  0
   -4.0028   -0.8086   -0.8462 H   0  0  0  0  0  0
   -2.9474    0.5813   -1.0719 H   0  0  0  0  0  0
   -2.7355   -1.3805    1.2789 H   0  0  0  0  0  0
   -1.6499   -0.0377    0.9364 H   0  0  0  0  0  0
   -2.1304   -2.5326   -0.7705 H   0  0  0  0  0  0
   -1.2162   -1.1639   -1.3702 H   0  0  0  0  0  0
   -0.5564   -2.8090    1.1170 H   0  0  0  0  0  0
    0.6828   -2.9148   -1.6869 H   0  0  0  0  0  0
   -0.3452   -4.1041   -0.9229 H   0  0  0  0  0  0
    1.8922   -4.9232   -0.8174 H   0  0  0  0  0  0
    2.5117   -3.4313   -0.1187 H   0  0  0  0  0  0
    1.4382   -4.4871    0.8350 H   0  0  0  0  0  0
    2.2700   -2.1317    1.6482 H   0  0  0  0  0  0
    0.8363   -1.8226    2.6428 H   0  0  0  0  0  0
    1.8946   -0.5042    2.2237 H   0  0  0  0  0  0
    0.9790   -0.7191   -1.4042 H   0  0  0  0  0  0
    2.4191   -0.6919   -0.4405 H   0  0  0  0  0  0
    0.2051    1.2812    0.2212 H   0  0  0  0  0  0
    1.8082    2.5695    1.1534 H   0  0  0  0  0  0
    2.8046    1.1297    1.1732 H   0  0  0  0  0  0
    3.8123    1.7740   -0.9909 H   0  0  0  0  0  0
    4.0076    3.0740    0.1806 H   0  0  0  0  0  0
    3.0971    3.4861   -2.3152 H   0  0  0  0  0  0
    2.5828    4.5112   -0.9813 H   0  0  0  0  0  0
    0.4369    3.4939   -0.8413 H   0  0  0  0  0  0
    0.7580    3.4586   -2.5733 H   0  0  0  0  0  0
    0.5754   -1.0787    0.6960 N   0  3  1  0  0  0
   -0.1050   -0.3886    1.0351 H   0  0  0  0  0  0
  1  2  1  0  0  0
  1 17  1  0  0  0
  1 18  1  0  0  0
  1 19  1  0  0  0
  2  3  1  0  0  0
  2 20  1  0  0  0
  2 21  1  0  0  0
  3  4  1  0  0  0
  3 22  1  0  0  0
  3 23  1  0  0  0
  4  5  1  0  0  0
  4 24  1  0  0  0
  4 25  1  0  0  0
  5  6  1  0  0  0
  5 26  1  0  0  0
  5 27  1  0  0  0
  6  7  1  0  0  0
  6 28  1  0  0  0
  6 48  1  0  0  0
  7  8  1  0  0  0
  7 29  1  0  0  0
  7 30  1  0  0  0
  8 31  1  0  0  0
  8 32  1  0  0  0
  8 33  1  0  0  0
  9 34  1  0  0  0
  9 35  1  0  0  0
  9 36  1  0  0  0
  9 48  1  0  0  0
 10 11  1  0  0  0
 10 37  1  0  0  0
 10 38  1  0  0  0
 10 48  1  0  0  0
 11 12  1  0  0  0
 11 16  1  0  0  0
 11 39  1  0  0  0
 12 13  1  0  0  0
 12 40  1  0  0  0
 12 41  1  0  0  0
 13 14  1  0  0  0
 13 42  1  0  0  0
 13 43  1  0  0  0
 14 15  1  0  0  0
 14 44  1  0  0  0
 14 45  1  0  0  0
 15 16  1  0  0  0
 15 46  1  0  0  0
 15 47  1  0  0  0
 48 49  1  0  0  0
M  CHG  1  48   1
M  END
> <energy>
49.8236

> <chiral flag>
0

> <version>
0

> <i_ionizer_Ion_state_n>
1

> <i_ionizer_Tot_Q>
1

> <s_ionizer_Ion_centers>
48

> <s_ionizer_Ion_types>
N5

> <s_ionizer_Ion_ctrs_in>
9

> <r_ionizer_Ionization_penalty>
0.00148639

> <r_ionizer_Ionization_penalty_charging>
0.00148639

> <r_ionizer_Ionization_penalty_neutral>
0

$$$$
ZINC001258446849
                    3D
 Structure written by MMmdl.
 49 49  0  0  1  0            999 V2000
   -4.7858    2.0317    1.4092 C   0  0  0  0  0  0
   -3.5823    1.1000    1.3845 C   0  0  0  0  0  0
   -3.7570    0.0107    0.3241 C   0  0  0  0  0  0
   -2.5920   -0.9852    0.2726 C   0  0  0  0  0  0
   -1.3149   -0.3791   -0.3216 C   0  0  0  0  0  0
   -0.0737   -1.3072   -0.4139 C   0  0  2  0  0  0
   -0.4296   -2.7280   -0.9178 C   0  0  0  0  0  0
    0.8021   -3.5805   -1.2074 C   0  0  0  0  0  0
    0.1950   -1.8590    1.9907 C   0  0  0  0  0  0
    1.5442   -0.0986    1.0743 C   0  0  0  0  0  0
    2.3637    0.5490   -0.0734 C   0  0  1  0  0  0
    1.5793    1.6213   -0.8511 C   0  0  0  0  0  0
    2.4811    2.7369   -1.3806 C   0  0  0  0  0  0
    3.8595    2.1962   -1.7233 C   0  0  0  0  0  0
    4.4920    1.5023   -0.5167 C   0  0  0  0  0  0
    3.5345    1.1635    0.4900 O   0  0  0  0  0  0
   -4.6552    2.7991    2.1790 H   0  0  0  0  0  0
   -5.7056    1.4793    1.6294 H   0  0  0  0  0  0
   -4.9083    2.5353    0.4443 H   0  0  0  0  0  0
   -3.4616    0.6411    2.3732 H   0  0  0  0  0  0
   -2.6841    1.6945    1.1894 H   0  0  0  0  0  0
   -4.6717   -0.5512    0.5475 H   0  0  0  0  0  0
   -3.9013    0.4663   -0.6632 H   0  0  0  0  0  0
   -2.9112   -1.8240   -0.3580 H   0  0  0  0  0  0
   -2.4145   -1.3874    1.2732 H   0  0  0  0  0  0
   -1.0449    0.5317    0.2213 H   0  0  0  0  0  0
   -1.5498   -0.0450   -1.3435 H   0  0  0  0  0  0
    0.5315   -0.9031   -1.2316 H   0  0  0  0  0  0
   -1.0668   -3.2591   -0.2032 H   0  0  0  0  0  0
   -1.0074   -2.6407   -1.8474 H   0  0  0  0  0  0
    1.3704   -3.7827   -0.2950 H   0  0  0  0  0  0
    0.5070   -4.5421   -1.6389 H   0  0  0  0  0  0
    1.4677   -3.0813   -1.9179 H   0  0  0  0  0  0
   -0.5130   -1.1483    2.4288 H   0  0  0  0  0  0
   -0.3139   -2.8152    1.8323 H   0  0  0  0  0  0
    0.9696   -2.0576    2.7427 H   0  0  0  0  0  0
    0.8695    0.6476    1.5142 H   0  0  0  0  0  0
    2.2610   -0.3402    1.8718 H   0  0  0  0  0  0
    2.7063   -0.2430   -0.7537 H   0  0  0  0  0  0
    0.8058    2.0831   -0.2246 H   0  0  0  0  0  0
    1.0574    1.1552   -1.6926 H   0  0  0  0  0  0
    2.5821    3.5183   -0.6169 H   0  0  0  0  0  0
    2.0219    3.2089   -2.2554 H   0  0  0  0  0  0
    4.5162    2.9948   -2.0874 H   0  0  0  0  0  0
    3.7688    1.4766   -2.5472 H   0  0  0  0  0  0
    5.0223    0.5958   -0.8302 H   0  0  0  0  0  0
    5.2300    2.1618   -0.0483 H   0  0  0  0  0  0
    0.8779   -1.3984    0.7724 N   0  3  2  0  0  0
    1.6050   -2.0826    0.5327 H   0  0  0  0  0  0
  1  2  1  0  0  0
  1 17  1  0  0  0
  1 18  1  0  0  0
  1 19  1  0  0  0
  2  3  1  0  0  0
  2 20  1  0  0  0
  2 21  1  0  0  0
  3  4  1  0  0  0
  3 22  1  0  0  0
  3 23  1  0  0  0
  4  5  1  0  0  0
  4 24  1  0  0  0
  4 25  1  0  0  0
  5  6  1  0  0  0
  5 26  1  0  0  0
  5 27  1  0  0  0
  6  7  1  0  0  0
  6 28  1  0  0  0
  6 48  1  0  0  0
  7  8  1  0  0  0
  7 29  1  0  0  0
  7 30  1  0  0  0
  8 31  1  0  0  0
  8 32  1  0  0  0
  8 33  1  0  0  0
  9 34  1  0  0  0
  9 35  1  0  0  0
  9 36  1  0  0  0
  9 48  1  0  0  0
 10 11  1  0  0  0
 10 37  1  0  0  0
 10 38  1  0  0  0
 10 48  1  0  0  0
 11 12  1  0  0  0
 11 16  1  0  0  0
 11 39  1  0  0  0
 12 13  1  0  0  0
 12 40  1  0  0  0
 12 41  1  0  0  0
 13 14  1  0  0  0
 13 42  1  0  0  0
 13 43  1  0  0  0
 14 15  1  0  0  0
 14 44  1  0  0  0
 14 45  1  0  0  0
 15 16  1  0  0  0
 15 46  1  0  0  0
 15 47  1  0  0  0
 48 49  1  0  0  0
M  CHG  1  48   1
M  END
> <energy>
49.3352

> <chiral flag>
0

> <version>
0

> <i_ionizer_Ion_state_n>
1

> <i_ionizer_Tot_Q>
1

> <s_ionizer_Ion_centers>
48

> <s_ionizer_Ion_types>
N5

> <s_ionizer_Ion_ctrs_in>
9

> <r_ionizer_Ionization_penalty>
0.00148639

> <r_ionizer_Ionization_penalty_charging>
0.00148639

> <r_ionizer_Ionization_penalty_neutral>
0

$$$$
ZINC001258446913
                    3D
 Structure written by MMmdl.
 40 41  0  0  1  0            999 V2000
   -4.3437    1.9319    0.1203 C   0  0  0  0  0  0
   -3.3923    0.9177   -0.4186 C   0  0  0  0  0  0
   -2.4293    1.0975   -1.3898 C   0  0  0  0  0  0
   -1.7325   -0.1075   -1.6873 C   0  0  0  0  0  0
   -2.1676   -1.1708   -0.9214 C   0  0  0  0  0  0
   -1.7143   -2.5984   -0.9946 C   0  0  0  0  0  0
   -0.8093   -3.0644    0.1500 C   0  0  0  0  0  0
    0.5224   -2.3121    0.2535 C   0  0  0  0  0  0
    1.6590   -0.3910    1.2205 C   0  0  2  0  0  0
    2.0138   -0.0778    2.6776 C   0  0  0  0  0  0
    1.3979    0.9000    0.4182 C   0  0  0  0  0  0
    2.6594    1.6490    0.0889 C   0  0  0  0  0  0
    3.4146    1.3498   -1.1788 C   0  0  0  0  0  0
    2.6568    2.6411   -1.0449 C   0  0  0  0  0  0
   -3.4096   -0.6934    0.1546 S   0  0  0  0  0  0
   -4.8835    2.4127   -0.7034 H   0  0  0  0  0  0
   -5.0868    1.4928    0.7944 H   0  0  0  0  0  0
   -3.8007    2.7091    0.6687 H   0  0  0  0  0  0
   -2.2497    2.0447   -1.8826 H   0  0  0  0  0  0
   -0.9546   -0.1914   -2.4345 H   0  0  0  0  0  0
   -1.1820   -2.7479   -1.9443 H   0  0  0  0  0  0
   -2.5918   -3.2581   -1.0404 H   0  0  0  0  0  0
   -1.3497   -3.0455    1.1058 H   0  0  0  0  0  0
   -0.5789   -4.1223   -0.0345 H   0  0  0  0  0  0
    0.8269   -1.9388   -0.7318 H   0  0  0  0  0  0
    1.2890   -3.0228    0.5864 H   0  0  0  0  0  0
    2.5062   -0.9370    0.7848 H   0  0  0  0  0  0
    2.1736   -1.0013    3.2474 H   0  0  0  0  0  0
    1.2193    0.4933    3.1726 H   0  0  0  0  0  0
    2.9398    0.5033    2.7418 H   0  0  0  0  0  0
    0.7260    1.5641    0.9795 H   0  0  0  0  0  0
    0.8819    0.6498   -0.5173 H   0  0  0  0  0  0
    3.2281    1.9211    0.9702 H   0  0  0  0  0  0
    4.4970    1.3913   -1.1481 H   0  0  0  0  0  0
    3.0241    0.5953   -1.8513 H   0  0  0  0  0  0
    1.7460    2.7598   -1.6214 H   0  0  0  0  0  0
    3.2259    3.5562   -0.9185 H   0  0  0  0  0  0
    0.4385   -1.2313    1.2506 N   0  3  0  0  0  0
   -0.3788   -0.6453    1.0436 H   0  0  0  0  0  0
    0.3364   -1.6432    2.1855 H   0  0  0  0  0  0
  1  2  1  0  0  0
  1 16  1  0  0  0
  1 17  1  0  0  0
  1 18  1  0  0  0
  2  3  2  0  0  0
  2 15  1  0  0  0
  3  4  1  0  0  0
  3 19  1  0  0  0
  4  5  2  0  0  0
  4 20  1  0  0  0
  5  6  1  0  0  0
  5 15  1  0  0  0
  6  7  1  0  0  0
  6 21  1  0  0  0
  6 22  1  0  0  0
  7  8  1  0  0  0
  7 23  1  0  0  0
  7 24  1  0  0  0
  8 25  1  0  0  0
  8 26  1  0  0  0
  8 38  1  0  0  0
  9 10  1  0  0  0
  9 11  1  0  0  0
  9 27  1  0  0  0
  9 38  1  0  0  0
 10 28  1  0  0  0
 10 29  1  0  0  0
 10 30  1  0  0  0
 11 12  1  0  0  0
 11 31  1  0  0  0
 11 32  1  0  0  0
 12 13  1  0  0  0
 12 14  1  0  0  0
 12 33  1  0  0  0
 13 14  1  0  0  0
 13 34  1  0  0  0
 13 35  1  0  0  0
 14 36  1  0  0  0
 14 37  1  0  0  0
 38 39  1  0  0  0
 38 40  1  0  0  0
M  CHG  1  38   1
M  END
> <energy>
34.5395

> <chiral flag>
0

> <version>
0

> <i_ionizer_Ion_state_n>
1

> <i_ionizer_Tot_Q>
1

> <s_ionizer_Ion_centers>
38

> <s_ionizer_Ion_types>
N5

> <s_ionizer_Ion_ctrs_in>
9

> <r_ionizer_Ionization_penalty>
0.000148807

> <r_ionizer_Ionization_penalty_charging>
0.000148807

> <r_ionizer_Ionization_penalty_neutral>
0

$$$$
ZINC001258446914
                    3D
 Structure written by MMmdl.
 40 41  0  0  1  0            999 V2000
   -6.5819   -0.4796   -0.6508 C   0  0  0  0  0  0
   -5.1205   -0.2308   -0.5110 C   0  0  0  0  0  0
   -4.4952    0.8452    0.0822 C   0  0  0  0  0  0
   -3.0772    0.7386    0.0335 C   0  0  0  0  0  0
   -2.6578   -0.4070   -0.6116 C   0  0  0  0  0  0
   -1.2485   -0.8583   -0.8708 C   0  0  0  0  0  0
   -0.7069   -1.7018    0.2869 C   0  0  0  0  0  0
    0.7869   -2.0173    0.1426 C   0  0  0  0  0  0
    1.9201   -0.0008    0.9625 C   0  0  1  0  0  0
    1.8040    0.7323    2.3024 C   0  0  0  0  0  0
    3.3513    0.1094    0.3939 C   0  0  0  0  0  0
    3.6456    1.4652   -0.1845 C   0  0  0  0  0  0
    3.3968    1.7392   -1.6463 C   0  0  0  0  0  0
    4.8063    1.6365   -1.1299 C   0  0  0  0  0  0
   -3.9873   -1.3511   -1.1310 S   0  0  0  0  0  0
   -7.0990   -0.2596    0.2893 H   0  0  0  0  0  0
   -7.0004    0.1684   -1.4271 H   0  0  0  0  0  0
   -6.8078   -1.5169   -0.9201 H   0  0  0  0  0  0
   -5.0297    1.6716    0.5347 H   0  0  0  0  0  0
   -2.3942    1.4714    0.4478 H   0  0  0  0  0  0
   -0.6215    0.0282   -1.0218 H   0  0  0  0  0  0
   -1.1983   -1.4328   -1.8050 H   0  0  0  0  0  0
   -1.2644   -2.6466    0.3298 H   0  0  0  0  0  0
   -0.9064   -1.2005    1.2424 H   0  0  0  0  0  0
    1.1837   -1.7578   -0.8450 H   0  0  0  0  0  0
    0.9070   -3.1022    0.2405 H   0  0  0  0  0  0
    1.2069    0.4656    0.2740 H   0  0  0  0  0  0
    2.0002    1.8027    2.1890 H   0  0  0  0  0  0
    0.7925    0.6309    2.7139 H   0  0  0  0  0  0
    2.5123    0.3347    3.0412 H   0  0  0  0  0  0
    4.0862   -0.1033    1.1813 H   0  0  0  0  0  0
    3.4978   -0.6536   -0.3824 H   0  0  0  0  0  0
    3.4748    2.2681    0.5214 H   0  0  0  0  0  0
    3.0327    2.7209   -1.9269 H   0  0  0  0  0  0
    3.0244    0.9343   -2.2696 H   0  0  0  0  0  0
    5.3848    0.7644   -1.4136 H   0  0  0  0  0  0
    5.3910    2.5467   -1.0525 H   0  0  0  0  0  0
    1.5772   -1.4206    1.2432 N   0  3  0  0  0  0
    1.0288   -1.4661    2.1100 H   0  0  0  0  0  0
    2.4452   -1.9567    1.3588 H   0  0  0  0  0  0
  1  2  1  0  0  0
  1 16  1  0  0  0
  1 17  1  0  0  0
  1 18  1  0  0  0
  2  3  2  0  0  0
  2 15  1  0  0  0
  3  4  1  0  0  0
  3 19  1  0  0  0
  4  5  2  0  0  0
  4 20  1  0  0  0
  5  6  1  0  0  0
  5 15  1  0  0  0
  6  7  1  0  0  0
  6 21  1  0  0  0
  6 22  1  0  0  0
  7  8  1  0  0  0
  7 23  1  0  0  0
  7 24  1  0  0  0
  8 25  1  0  0  0
  8 26  1  0  0  0
  8 38  1  0  0  0
  9 10  1  0  0  0
  9 11  1  0  0  0
  9 27  1  0  0  0
  9 38  1  0  0  0
 10 28  1  0  0  0
 10 29  1  0  0  0
 10 30  1  0  0  0
 11 12  1  0  0  0
 11 31  1  0  0  0
 11 32  1  0  0  0
 12 13  1  0  0  0
 12 14  1  0  0  0
 12 33  1  0  0  0
 13 14  1  0  0  0
 13 34  1  0  0  0
 13 35  1  0  0  0
 14 36  1  0  0  0
 14 37  1  0  0  0
 38 39  1  0  0  0
 38 40  1  0  0  0
M  CHG  1  38   1
M  END
> <energy>
38.4536

> <chiral flag>
0

> <version>
0

> <i_ionizer_Ion_state_n>
1

> <i_ionizer_Tot_Q>
1

> <s_ionizer_Ion_centers>
38

> <s_ionizer_Ion_types>
N5

> <s_ionizer_Ion_ctrs_in>
9

> <r_ionizer_Ionization_penalty>
0.000148807

> <r_ionizer_Ionization_penalty_charging>
0.000148807

> <r_ionizer_Ionization_penalty_neutral>
0

$$$$
ZINC001258446974
                    3D
 Structure written by MMmdl.
 47 48  0  0  1  0            999 V2000
   -4.7379    1.5483    0.7733 C   0  0  0  0  0  0
   -3.9307    0.2674    0.9104 C   0  0  0  0  0  0
   -2.8909    0.1585   -0.2017 C   0  0  0  0  0  0
   -2.1313   -1.1685   -0.1403 C   0  0  0  0  0  0
   -1.0741   -1.2787   -1.2508 C   0  0  0  0  0  0
    0.4053   -1.0608   -0.7879 C   0  0  2  0  0  0
    0.8434   -2.3440   -0.0256 C   0  0  0  0  0  0
    2.3347   -2.6472   -0.1102 C   0  0  0  0  0  0
    0.5065    1.3663   -1.1408 C   0  0  0  0  0  0
    1.7905    1.4609   -1.9718 C   0  0  0  0  0  0
    3.0071    0.8304   -1.2990 C   0  0  0  0  0  0
    2.9689    0.9140    0.2234 C   0  0  0  0  0  0
    1.6025    0.5579    0.8153 C   0  0  0  0  0  0
    1.5225   -0.2526    2.1420 C   0  0  0  0  0  0
    1.6018    0.9692    2.9289 O   0  0  0  0  0  0
    1.0731    1.6906    1.7809 C   0  0  0  0  0  0
   -5.2897    1.5612   -0.1736 H   0  0  0  0  0  0
   -5.4619    1.6296    1.5895 H   0  0  0  0  0  0
   -4.0855    2.4274    0.8013 H   0  0  0  0  0  0
   -4.6114   -0.5903    0.8711 H   0  0  0  0  0  0
   -3.4335    0.2504    1.8865 H   0  0  0  0  0  0
   -2.1990    1.0033   -0.1267 H   0  0  0  0  0  0
   -3.3896    0.2400   -1.1745 H   0  0  0  0  0  0
   -2.8557   -1.9823   -0.2728 H   0  0  0  0  0  0
   -1.6873   -1.3055    0.8516 H   0  0  0  0  0  0
   -1.1541   -2.2776   -1.7009 H   0  0  0  0  0  0
   -1.3225   -0.5932   -2.0700 H   0  0  0  0  0  0
    0.9931   -1.0606   -1.7120 H   0  0  0  0  0  0
    0.3461   -3.2115   -0.4805 H   0  0  0  0  0  0
    0.4966   -2.3494    1.0109 H   0  0  0  0  0  0
    2.9432   -1.9385    0.4474 H   0  0  0  0  0  0
    2.5342   -3.6428    0.3000 H   0  0  0  0  0  0
    2.6717   -2.6425   -1.1516 H   0  0  0  0  0  0
    0.3561    2.3250   -0.6240 H   0  0  0  0  0  0
   -0.3555    1.3035   -1.8113 H   0  0  0  0  0  0
    1.9929    2.5180   -2.1779 H   0  0  0  0  0  0
    1.6411    0.9792   -2.9464 H   0  0  0  0  0  0
    3.0700   -0.2236   -1.5949 H   0  0  0  0  0  0
    3.9257    1.2940   -1.6794 H   0  0  0  0  0  0
    3.2654    1.9303    0.5119 H   0  0  0  0  0  0
    3.7458    0.2562    0.6309 H   0  0  0  0  0  0
    0.5864   -0.7694    2.3724 H   0  0  0  0  0  0
    2.3691   -0.9074    2.3598 H   0  0  0  0  0  0
   -0.0146    1.8086    1.8734 H   0  0  0  0  0  0
    1.5276    2.6823    1.6853 H   0  0  0  0  0  0
    0.4402    0.3237   -0.1208 N   0  3  2  0  0  0
   -0.4287    0.4307    0.4158 H   0  0  0  0  0  0
  1  2  1  0  0  0
  1 17  1  0  0  0
  1 18  1  0  0  0
  1 19  1  0  0  0
  2  3  1  0  0  0
  2 20  1  0  0  0
  2 21  1  0  0  0
  3  4  1  0  0  0
  3 22  1  0  0  0
  3 23  1  0  0  0
  4  5  1  0  0  0
  4 24  1  0  0  0
  4 25  1  0  0  0
  5  6  1  0  0  0
  5 26  1  0  0  0
  5 27  1  0  0  0
  6  7  1  0  0  0
  6 28  1  0  0  0
  6 46  1  0  0  0
  7  8  1  0  0  0
  7 29  1  0  0  0
  7 30  1  0  0  0
  8 31  1  0  0  0
  8 32  1  0  0  0
  8 33  1  0  0  0
  9 10  1  0  0  0
  9 34  1  0  0  0
  9 35  1  0  0  0
  9 46  1  0  0  0
 10 11  1  0  0  0
 10 36  1  0  0  0
 10 37  1  0  0  0
 11 12  1  0  0  0
 11 38  1  0  0  0
 11 39  1  0  0  0
 12 13  1  0  0  0
 12 40  1  0  0  0
 12 41  1  0  0  0
 13 14  1  0  0  0
 13 16  1  0  0  0
 13 46  1  0  0  0
 14 15  1  0  0  0
 14 42  1  0  0  0
 14 43  1  0  0  0
 15 16  1  0  0  0
 16 44  1  0  0  0
 16 45  1  0  0  0
 46 47  1  0  0  0
M  CHG  1  46   1
M  END
> <energy>
72.8308

> <chiral flag>
0

> <version>
0

> <i_ionizer_Ion_state_n>
1

> <i_ionizer_Tot_Q>
1

> <s_ionizer_Ion_centers>
46

> <s_ionizer_Ion_types>
N5

> <s_ionizer_Ion_ctrs_in>
9

> <r_ionizer_Ionization_penalty>
0.00148639

> <r_ionizer_Ionization_penalty_charging>
0.00148639

> <r_ionizer_Ionization_penalty_neutral>
0

$$$$
ZINC001258446975
                    3D
 Structure written by MMmdl.
 47 48  0  0  1  0            999 V2000
   -5.3638   -0.4789   -0.6734 C   0  0  0  0  0  0
   -3.9927   -0.9196   -0.1839 C   0  0  0  0  0  0
   -3.0471    0.2739   -0.0301 C   0  0  0  0  0  0
   -1.7307   -0.1284    0.6387 C   0  0  0  0  0  0
   -0.8050    1.0778    0.9106 C   0  0  0  0  0  0
    0.5018    1.1452    0.0600 C   0  0  1  0  0  0
    1.2574    2.4713    0.3542 C   0  0  0  0  0  0
    0.6386    3.6772   -0.3427 C   0  0  0  0  0  0
    2.2853    0.0049    1.4049 C   0  0  0  0  0  0
    2.5044   -1.3733    2.0390 C   0  0  0  0  0  0
    2.1339   -2.5266    1.1025 C   0  0  0  0  0  0
    2.5264   -2.1713   -0.3249 C   0  0  0  0  0  0
    1.7721   -0.9148   -0.7877 C   0  0  0  0  0  0
    0.6861   -1.1942   -1.8578 C   0  0  0  0  0  0
    1.5511   -0.6935   -2.9119 O   0  0  0  0  0  0
    2.4633   -0.1395   -1.9241 C   0  0  0  0  0  0
   -5.2947   -0.0012   -1.6569 H   0  0  0  0  0  0
   -5.8147    0.2322    0.0271 H   0  0  0  0  0  0
   -6.0382   -1.3386   -0.7626 H   0  0  0  0  0  0
   -3.5673   -1.6438   -0.8891 H   0  0  0  0  0  0
   -4.1111   -1.4330    0.7771 H   0  0  0  0  0  0
   -2.8492    0.7158   -1.0131 H   0  0  0  0  0  0
   -3.5378    1.0467    0.5723 H   0  0  0  0  0  0
   -1.9621   -0.6083    1.5975 H   0  0  0  0  0  0
   -1.2406   -0.8985    0.0406 H   0  0  0  0  0  0
   -1.3779    2.0038    0.7908 H   0  0  0  0  0  0
   -0.5243    1.0409    1.9742 H   0  0  0  0  0  0
    0.1921    1.1874   -0.9893 H   0  0  0  0  0  0
    1.2838    2.6694    1.4345 H   0  0  0  0  0  0
    2.2968    2.3989    0.0120 H   0  0  0  0  0  0
    0.7066    3.5635   -1.4279 H   0  0  0  0  0  0
    1.1760    4.5860   -0.0541 H   0  0  0  0  0  0
   -0.4130    3.8197   -0.0761 H   0  0  0  0  0  0
    3.2332    0.3965    1.0107 H   0  0  0  0  0  0
    1.9806    0.6863    2.2066 H   0  0  0  0  0  0
    1.9217   -1.4611    2.9654 H   0  0  0  0  0  0
    3.5592   -1.4534    2.3248 H   0  0  0  0  0  0
    1.0532   -2.7026    1.1546 H   0  0  0  0  0  0
    2.6312   -3.4452    1.4293 H   0  0  0  0  0  0
    2.3306   -3.0219   -0.9855 H   0  0  0  0  0  0
    3.6096   -2.0031   -0.3594 H   0  0  0  0  0  0
   -0.2477   -0.6307   -1.8534 H   0  0  0  0  0  0
    0.4315   -2.2478   -2.0148 H   0  0  0  0  0  0
    3.4953   -0.4446   -2.1375 H   0  0  0  0  0  0
    2.4175    0.9519   -1.9146 H   0  0  0  0  0  0
    1.2081   -0.1824    0.4095 N   0  3  2  0  0  0
    0.4980   -0.7918    0.8320 H   0  0  0  0  0  0
  1  2  1  0  0  0
  1 17  1  0  0  0
  1 18  1  0  0  0
  1 19  1  0  0  0
  2  3  1  0  0  0
  2 20  1  0  0  0
  2 21  1  0  0  0
  3  4  1  0  0  0
  3 22  1  0  0  0
  3 23  1  0  0  0
  4  5  1  0  0  0
  4 24  1  0  0  0
  4 25  1  0  0  0
  5  6  1  0  0  0
  5 26  1  0  0  0
  5 27  1  0  0  0
  6  7  1  0  0  0
  6 28  1  0  0  0
  6 46  1  0  0  0
  7  8  1  0  0  0
  7 29  1  0  0  0
  7 30  1  0  0  0
  8 31  1  0  0  0
  8 32  1  0  0  0
  8 33  1  0  0  0
  9 10  1  0  0  0
  9 34  1  0  0  0
  9 35  1  0  0  0
  9 46  1  0  0  0
 10 11  1  0  0  0
 10 36  1  0  0  0
 10 37  1  0  0  0
 11 12  1  0  0  0
 11 38  1  0  0  0
 11 39  1  0  0  0
 12 13  1  0  0  0
 12 40  1  0  0  0
 12 41  1  0  0  0
 13 14  1  0  0  0
 13 16  1  0  0  0
 13 46  1  0  0  0
 14 15  1  0  0  0
 14 42  1  0  0  0
 14 43  1  0  0  0
 15 16  1  0  0  0
 16 44  1  0  0  0
 16 45  1  0  0  0
 46 47  1  0  0  0
M  CHG  1  46   1
M  END
> <energy>
68.0183

> <chiral flag>
0

> <version>
0

> <i_ionizer_Ion_state_n>
1

> <i_ionizer_Tot_Q>
1

> <s_ionizer_Ion_centers>
46

> <s_ionizer_Ion_types>
N5

> <s_ionizer_Ion_ctrs_in>
9

> <r_ionizer_Ionization_penalty>
0.00148639

> <r_ionizer_Ionization_penalty_charging>
0.00148639

> <r_ionizer_Ionization_penalty_neutral>
0

$$$$
ZINC001258446996
                    3D
 Structure written by MMmdl.
 44 45  0  0  1  0            999 V2000
   -4.5847    1.7569    0.3522 C   0  0  0  0  0  0
   -3.1272    1.5389    0.7379 C   0  0  0  0  0  0
   -2.7860    0.0685    0.9972 C   0  0  0  0  0  0
   -2.7685   -0.8227   -0.2462 C   0  0  0  0  0  0
   -1.6790   -0.5499   -1.2981 C   0  0  0  0  0  0
   -0.1852   -0.7576   -0.8897 C   0  0  2  0  0  0
   -0.0232   -2.1654   -0.2591 C   0  0  0  0  0  0
    1.3846   -2.7365   -0.3387 C   0  0  0  0  0  0
    0.9176    1.4483   -1.0458 C   0  0  0  0  0  0
    2.3792    1.1111   -1.3894 C   0  0  0  0  0  0
    3.1081    0.7089   -0.2024 N   0  0  0  0  0  0
    4.4674    0.6462   -0.0564 C   0  0  0  0  0  0
    4.7258    0.1500    1.2041 C   0  0  0  0  0  0
    3.4799   -0.0777    1.8331 C   0  0  0  0  0  0
    2.4884    0.2922    0.9467 C   0  0  0  0  0  0
    1.0040    0.3227    1.0963 C   0  0  0  0  0  0
   -5.2580    1.3328    1.1017 H   0  0  0  0  0  0
   -4.8019    2.8276    0.2843 H   0  0  0  0  0  0
   -4.8168    1.3068   -0.6145 H   0  0  0  0  0  0
   -2.4714    1.9611   -0.0300 H   0  0  0  0  0  0
   -2.9348    2.1002    1.6615 H   0  0  0  0  0  0
   -3.5201   -0.3404    1.7015 H   0  0  0  0  0  0
   -1.8230    0.0042    1.5121 H   0  0  0  0  0  0
   -2.6956   -1.8654    0.0882 H   0  0  0  0  0  0
   -3.7431   -0.7586   -0.7436 H   0  0  0  0  0  0
   -1.8196    0.4463   -1.7334 H   0  0  0  0  0  0
   -1.8748   -1.2431   -2.1287 H   0  0  0  0  0  0
    0.3657   -0.8091   -1.8392 H   0  0  0  0  0  0
   -0.3784   -2.1845    0.7768 H   0  0  0  0  0  0
   -0.6695   -2.8641   -0.8101 H   0  0  0  0  0  0
    2.0606   -2.2717    0.3792 H   0  0  0  0  0  0
    1.8044   -2.6246   -1.3441 H   0  0  0  0  0  0
    1.3614   -3.8071   -0.1096 H   0  0  0  0  0  0
    0.8916    2.4214   -0.5354 H   0  0  0  0  0  0
    0.3472    1.5932   -1.9731 H   0  0  0  0  0  0
    2.8884    1.9765   -1.8300 H   0  0  0  0  0  0
    2.4381    0.2692   -2.0861 H   0  0  0  0  0  0
    5.1380    0.9447   -0.8502 H   0  0  0  0  0  0
    5.7062   -0.0313    1.6231 H   0  0  0  0  0  0
    3.3201   -0.4658    2.8315 H   0  0  0  0  0  0
    0.7656    1.2161    1.6903 H   0  0  0  0  0  0
    0.6497   -0.5149    1.7031 H   0  0  0  0  0  0
    0.1858    0.5295   -0.1546 N   0  3  2  0  0  0
   -0.6928    0.9828    0.1226 H   0  0  0  0  0  0
  1  2  1  0  0  0
  1 17  1  0  0  0
  1 18  1  0  0  0
  1 19  1  0  0  0
  2  3  1  0  0  0
  2 20  1  0  0  0
  2 21  1  0  0  0
  3  4  1  0  0  0
  3 22  1  0  0  0
  3 23  1  0  0  0
  4  5  1  0  0  0
  4 24  1  0  0  0
  4 25  1  0  0  0
  5  6  1  0  0  0
  5 26  1  0  0  0
  5 27  1  0  0  0
  6  7  1  0  0  0
  6 28  1  0  0  0
  6 43  1  0  0  0
  7  8  1  0  0  0
  7 29  1  0  0  0
  7 30  1  0  0  0
  8 31  1  0  0  0
  8 32  1  0  0  0
  8 33  1  0  0  0
  9 10  1  0  0  0
  9 34  1  0  0  0
  9 35  1  0  0  0
  9 43  1  0  0  0
 10 11  1  0  0  0
 10 36  1  0  0  0
 10 37  1  0  0  0
 11 12  1  0  0  0
 11 15  1  0  0  0
 12 13  2  0  0  0
 12 38  1  0  0  0
 13 14  1  0  0  0
 13 39  1  0  0  0
 14 15  2  0  0  0
 14 40  1  0  0  0
 15 16  1  0  0  0
 16 41  1  0  0  0
 16 42  1  0  0  0
 16 43  1  0  0  0
 43 44  1  0  0  0
M  CHG  1  43   1
M  END
> <energy>
29.4564

> <chiral flag>
0

> <version>
0

> <i_ionizer_Ion_state_n>
1

> <i_ionizer_Tot_Q>
1

> <s_ionizer_Ion_centers>
43

> <s_ionizer_Ion_types>
N5

> <s_ionizer_Ion_ctrs_in>
9

> <r_ionizer_Ionization_penalty>
0.00148639

> <r_ionizer_Ionization_penalty_charging>
0.00148639

> <r_ionizer_Ionization_penalty_neutral>
0

$$$$
ZINC001258446997
                    3D
 Structure written by MMmdl.
 44 45  0  0  1  0            999 V2000
   -3.4497   -2.3889   -1.2014 C   0  0  0  0  0  0
   -2.8964   -1.6035   -0.0236 C   0  0  0  0  0  0
   -2.7379   -0.1190   -0.3677 C   0  0  0  0  0  0
   -2.1858    0.6991    0.8065 C   0  0  0  0  0  0
   -0.6644    0.5498    0.9769 C   0  0  0  0  0  0
    0.1580    1.5712    0.1453 C   0  0  1  0  0  0
    0.1454    2.9545    0.8557 C   0  0  0  0  0  0
    0.7990    4.0660    0.0384 C   0  0  0  0  0  0
    1.8172    0.6676   -1.4610 C   0  0  0  0  0  0
    1.4225   -0.8012   -1.6188 C   0  0  0  0  0  0
    1.8632   -1.5794   -0.4770 N   0  0  0  0  0  0
    1.9302   -2.9399   -0.4077 C   0  0  0  0  0  0
    2.3209   -3.2720    0.8711 C   0  0  0  0  0  0
    2.4953   -2.0627    1.5882 C   0  0  0  0  0  0
    2.2195   -1.0201    0.7257 C   0  0  0  0  0  0
    2.2821    0.4632    0.9171 C   0  0  0  0  0  0
   -3.5720   -3.4421   -0.9318 H   0  0  0  0  0  0
   -4.4257   -2.0014   -1.5065 H   0  0  0  0  0  0
   -2.7716   -2.3295   -2.0577 H   0  0  0  0  0  0
   -3.5748   -1.7151    0.8312 H   0  0  0  0  0  0
   -1.9340   -2.0368    0.2719 H   0  0  0  0  0  0
   -2.0962   -0.0045   -1.2476 H   0  0  0  0  0  0
   -3.7225    0.2823   -0.6390 H   0  0  0  0  0  0
   -2.4594    1.7496    0.6663 H   0  0  0  0  0  0
   -2.6832    0.3753    1.7293 H   0  0  0  0  0  0
   -0.4248    0.6738    2.0398 H   0  0  0  0  0  0
   -0.3942   -0.4748    0.7141 H   0  0  0  0  0  0
   -0.3531    1.7144   -0.8164 H   0  0  0  0  0  0
    0.6495    2.8875    1.8285 H   0  0  0  0  0  0
   -0.8882    3.2585    1.0593 H   0  0  0  0  0  0
    0.7077    5.0217    0.5657 H   0  0  0  0  0  0
    0.3166    4.1700   -0.9397 H   0  0  0  0  0  0
    1.8677    3.8801   -0.1183 H   0  0  0  0  0  0
    1.3249    1.2707   -2.2335 H   0  0  0  0  0  0
    2.8929    0.7647   -1.6704 H   0  0  0  0  0  0
    1.8789   -1.2297   -2.5167 H   0  0  0  0  0  0
    0.3344   -0.9150   -1.6821 H   0  0  0  0  0  0
    1.6899   -3.5619   -1.2600 H   0  0  0  0  0  0
    2.4645   -4.2750    1.2472 H   0  0  0  0  0  0
    2.8030   -1.9608    2.6207 H   0  0  0  0  0  0
    1.9427    0.7396    1.9212 H   0  0  0  0  0  0
    3.3407    0.7544    0.8760 H   0  0  0  0  0  0
    1.6286    1.3054   -0.1354 N   0  3  2  0  0  0
    2.1067    2.2140   -0.1493 H   0  0  0  0  0  0
  1  2  1  0  0  0
  1 17  1  0  0  0
  1 18  1  0  0  0
  1 19  1  0  0  0
  2  3  1  0  0  0
  2 20  1  0  0  0
  2 21  1  0  0  0
  3  4  1  0  0  0
  3 22  1  0  0  0
  3 23  1  0  0  0
  4  5  1  0  0  0
  4 24  1  0  0  0
  4 25  1  0  0  0
  5  6  1  0  0  0
  5 26  1  0  0  0
  5 27  1  0  0  0
  6  7  1  0  0  0
  6 28  1  0  0  0
  6 43  1  0  0  0
  7  8  1  0  0  0
  7 29  1  0  0  0
  7 30  1  0  0  0
  8 31  1  0  0  0
  8 32  1  0  0  0
  8 33  1  0  0  0
  9 10  1  0  0  0
  9 34  1  0  0  0
  9 35  1  0  0  0
  9 43  1  0  0  0
 10 11  1  0  0  0
 10 36  1  0  0  0
 10 37  1  0  0  0
 11 12  1  0  0  0
 11 15  1  0  0  0
 12 13  2  0  0  0
 12 38  1  0  0  0
 13 14  1  0  0  0
 13 39  1  0  0  0
 14 15  2  0  0  0
 14 40  1  0  0  0
 15 16  1  0  0  0
 16 41  1  0  0  0
 16 42  1  0  0  0
 16 43  1  0  0  0
 43 44  1  0  0  0
M  CHG  1  43   1
M  END
> <energy>
24.6179

> <chiral flag>
0

> <version>
0

> <i_ionizer_Ion_state_n>
1

> <i_ionizer_Tot_Q>
1

> <s_ionizer_Ion_centers>
43

> <s_ionizer_Ion_types>
N5

> <s_ionizer_Ion_ctrs_in>
9

> <r_ionizer_Ionization_penalty>
0.00148639

> <r_ionizer_Ionization_penalty_charging>
0.00148639

> <r_ionizer_Ionization_penalty_neutral>
0

$$$$
ZINC001258447006
                    3D
 Structure written by MMmdl.
 49 49  0  0  1  0            999 V2000
    0.0217   -2.7408   -2.7014 C   0  0  0  0  0  0
   -0.9389   -3.0801   -1.5714 C   0  0  0  0  0  0
   -2.2623   -2.3062   -1.6252 C   0  0  0  0  0  0
   -2.1593   -0.7739   -1.5844 C   0  0  0  0  0  0
   -1.4617   -0.2377   -0.3265 C   0  0  0  0  0  0
   -1.0509    1.2554   -0.4355 C   0  0  1  0  0  0
   -2.1209    2.2303    0.1160 C   0  0  0  0  0  0
   -3.4843    2.1400   -0.5550 C   0  0  0  0  0  0
    1.3612    1.8619   -0.5938 C   0  0  0  0  0  0
    2.7417    1.2663   -0.2421 C   0  0  0  0  0  0
    2.6819    0.0034    0.6160 C   0  0  0  0  0  0
    2.3663    0.2697    2.1014 C   0  0  2  0  0  0
    1.6047   -0.8042    2.6741 O   0  0  0  0  0  0
    2.2895   -2.0500    2.6983 C   0  0  0  0  0  0
    1.6153    1.5794    2.3671 C   0  0  0  0  0  0
    0.2707    1.7000    1.6451 C   0  0  0  0  0  0
   -0.4160   -2.9993   -3.6702 H   0  0  0  0  0  0
    0.2804   -1.6798   -2.7130 H   0  0  0  0  0  0
    0.9517   -3.3063   -2.5865 H   0  0  0  0  0  0
   -1.1640   -4.1545   -1.6110 H   0  0  0  0  0  0
   -0.4378   -2.9208   -0.6107 H   0  0  0  0  0  0
   -2.7909   -2.5900   -2.5428 H   0  0  0  0  0  0
   -2.8892   -2.6387   -0.7914 H   0  0  0  0  0  0
   -1.6434   -0.4243   -2.4862 H   0  0  0  0  0  0
   -3.1764   -0.3705   -1.6363 H   0  0  0  0  0  0
   -0.5569   -0.8326   -0.1640 H   0  0  0  0  0  0
   -2.0954   -0.4038    0.5534 H   0  0  0  0  0  0
   -0.9287    1.4966   -1.4994 H   0  0  0  0  0  0
   -1.7506    3.2563   -0.0085 H   0  0  0  0  0  0
   -2.2777    2.0739    1.1900 H   0  0  0  0  0  0
   -3.3968    2.1501   -1.6426 H   0  0  0  0  0  0
   -4.0174    1.2351   -0.2487 H   0  0  0  0  0  0
   -4.1001    2.9957   -0.2606 H   0  0  0  0  0  0
    1.4060    2.9582   -0.5690 H   0  0  0  0  0  0
    1.1846    1.5937   -1.6436 H   0  0  0  0  0  0
    3.2577    1.0207   -1.1809 H   0  0  0  0  0  0
    3.3669    2.0220    0.2471 H   0  0  0  0  0  0
    3.6569   -0.5005    0.5665 H   0  0  0  0  0  0
    1.9702   -0.7109    0.1806 H   0  0  0  0  0  0
    3.3152    0.3324    2.6534 H   0  0  0  0  0  0
    1.6419   -2.7823    3.1865 H   0  0  0  0  0  0
    2.4985   -2.4062    1.6864 H   0  0  0  0  0  0
    3.2179   -1.9680    3.2705 H   0  0  0  0  0  0
    1.4167    1.6582    3.4442 H   0  0  0  0  0  0
    2.2476    2.4391    2.1202 H   0  0  0  0  0  0
   -0.0771    2.7301    1.7885 H   0  0  0  0  0  0
   -0.4354    1.0459    2.1695 H   0  0  0  0  0  0
    0.3086    1.1938    0.2311 N   0  3  1  0  0  0
    0.5661    0.2013    0.2845 H   0  0  0  0  0  0
  1  2  1  0  0  0
  1 17  1  0  0  0
  1 18  1  0  0  0
  1 19  1  0  0  0
  2  3  1  0  0  0
  2 20  1  0  0  0
  2 21  1  0  0  0
  3  4  1  0  0  0
  3 22  1  0  0  0
  3 23  1  0  0  0
  4  5  1  0  0  0
  4 24  1  0  0  0
  4 25  1  0  0  0
  5  6  1  0  0  0
  5 26  1  0  0  0
  5 27  1  0  0  0
  6  7  1  0  0  0
  6 28  1  0  0  0
  6 48  1  0  0  0
  7  8  1  0  0  0
  7 29  1  0  0  0
  7 30  1  0  0  0
  8 31  1  0  0  0
  8 32  1  0  0  0
  8 33  1  0  0  0
  9 10  1  0  0  0
  9 34  1  0  0  0
  9 35  1  0  0  0
  9 48  1  0  0  0
 10 11  1  0  0  0
 10 36  1  0  0  0
 10 37  1  0  0  0
 11 12  1  0  0  0
 11 38  1  0  0  0
 11 39  1  0  0  0
 12 13  1  0  0  0
 12 15  1  0  0  0
 12 40  1  0  0  0
 13 14  1  0  0  0
 14 41  1  0  0  0
 14 42  1  0  0  0
 14 43  1  0  0  0
 15 16  1  0  0  0
 15 44  1  0  0  0
 15 45  1  0  0  0
 16 46  1  0  0  0
 16 47  1  0  0  0
 16 48  1  0  0  0
 48 49  1  0  0  0
M  CHG  1  48   1
M  END
> <energy>
37.5486

> <chiral flag>
0

> <version>
0

> <i_ionizer_Ion_state_n>
1

> <i_ionizer_Tot_Q>
1

> <s_ionizer_Ion_centers>
48

> <s_ionizer_Ion_types>
N5

> <s_ionizer_Ion_ctrs_in>
9

> <r_ionizer_Ionization_penalty>
0.00148639

> <r_ionizer_Ionization_penalty_charging>
0.00148639

> <r_ionizer_Ionization_penalty_neutral>
0

$$$$
ZINC001258447007
                    3D
 Structure written by MMmdl.
 49 49  0  0  1  0            999 V2000
   -3.0583    1.0632    2.4798 C   0  0  0  0  0  0
   -2.1864    0.2656    3.4396 C   0  0  0  0  0  0
   -1.6072   -1.0016    2.8068 C   0  0  0  0  0  0
   -0.4963   -0.7073    1.7920 C   0  0  0  0  0  0
   -0.0326   -1.9888    1.0925 C   0  0  0  0  0  0
    1.1345   -1.8762    0.0711 C   0  0  2  0  0  0
    2.5459   -2.0817    0.6742 C   0  0  0  0  0  0
    2.8963   -1.3340    1.9515 C   0  0  0  0  0  0
    1.1666   -1.1010   -2.2777 C   0  0  0  0  0  0
   -0.0405   -0.6455   -3.1013 C   0  0  0  0  0  0
   -0.1972    0.8652   -3.2645 C   0  0  0  0  0  0
   -0.1647    1.6749   -1.9573 C   0  0  2  0  0  0
   -0.5152    3.0374   -2.2602 O   0  0  0  0  0  0
   -1.9167    3.2681   -2.1702 C   0  0  0  0  0  0
    1.2521    1.7166   -1.3778 C   0  0  0  0  0  0
    1.6079    0.5094   -0.5027 C   0  0  0  0  0  0
   -2.4701    1.4984    1.6676 H   0  0  0  0  0  0
   -3.5463    1.8855    3.0116 H   0  0  0  0  0  0
   -3.8353    0.4322    2.0408 H   0  0  0  0  0  0
   -2.7968   -0.0249    4.3038 H   0  0  0  0  0  0
   -1.3804    0.9029    3.8225 H   0  0  0  0  0  0
   -2.4129   -1.5751    2.3314 H   0  0  0  0  0  0
   -1.1961   -1.6338    3.6023 H   0  0  0  0  0  0
    0.3374   -0.2250    2.3103 H   0  0  0  0  0  0
   -0.8704   -0.0045    1.0398 H   0  0  0  0  0  0
   -0.9035   -2.3907    0.5556 H   0  0  0  0  0  0
    0.2226   -2.7442    1.8461 H   0  0  0  0  0  0
    0.9877   -2.7926   -0.5173 H   0  0  0  0  0  0
    2.6609   -3.1529    0.8911 H   0  0  0  0  0  0
    3.3030   -1.8625   -0.0903 H   0  0  0  0  0  0
    2.8311   -0.2514    1.8365 H   0  0  0  0  0  0
    2.2526   -1.6321    2.7844 H   0  0  0  0  0  0
    3.9255   -1.5683    2.2445 H   0  0  0  0  0  0
    1.2504   -2.1855   -2.4180 H   0  0  0  0  0  0
    2.0986   -0.6821   -2.6798 H   0  0  0  0  0  0
    0.0337   -1.0873   -4.1028 H   0  0  0  0  0  0
   -0.9587   -1.0578   -2.6612 H   0  0  0  0  0  0
   -1.1369    1.0542   -3.7982 H   0  0  0  0  0  0
    0.5827    1.2429   -3.9407 H   0  0  0  0  0  0
   -0.8680    1.2783   -1.2144 H   0  0  0  0  0  0
   -2.2707    3.0955   -1.1481 H   0  0  0  0  0  0
   -2.4649    2.6295   -2.8689 H   0  0  0  0  0  0
   -2.1103    4.3121   -2.4301 H   0  0  0  0  0  0
    1.3748    2.6252   -0.7709 H   0  0  0  0  0  0
    1.9848    1.8143   -2.1889 H   0  0  0  0  0  0
    1.3299    0.7776    0.5192 H   0  0  0  0  0  0
    2.7007    0.4072   -0.5042 H   0  0  0  0  0  0
    0.8579   -0.7260   -0.8769 N   0  3  2  0  0  0
   -0.1448   -0.5123   -0.8201 H   0  0  0  0  0  0
  1  2  1  0  0  0
  1 17  1  0  0  0
  1 18  1  0  0  0
  1 19  1  0  0  0
  2  3  1  0  0  0
  2 20  1  0  0  0
  2 21  1  0  0  0
  3  4  1  0  0  0
  3 22  1  0  0  0
  3 23  1  0  0  0
  4  5  1  0  0  0
  4 24  1  0  0  0
  4 25  1  0  0  0
  5  6  1  0  0  0
  5 26  1  0  0  0
  5 27  1  0  0  0
  6  7  1  0  0  0
  6 28  1  0  0  0
  6 48  1  0  0  0
  7  8  1  0  0  0
  7 29  1  0  0  0
  7 30  1  0  0  0
  8 31  1  0  0  0
  8 32  1  0  0  0
  8 33  1  0  0  0
  9 10  1  0  0  0
  9 34  1  0  0  0
  9 35  1  0  0  0
  9 48  1  0  0  0
 10 11  1  0  0  0
 10 36  1  0  0  0
 10 37  1  0  0  0
 11 12  1  0  0  0
 11 38  1  0  0  0
 11 39  1  0  0  0
 12 13  1  0  0  0
 12 15  1  0  0  0
 12 40  1  0  0  0
 13 14  1  0  0  0
 14 41  1  0  0  0
 14 42  1  0  0  0
 14 43  1  0  0  0
 15 16  1  0  0  0
 15 44  1  0  0  0
 15 45  1  0  0  0
 16 46  1  0  0  0
 16 47  1  0  0  0
 16 48  1  0  0  0
 48 49  1  0  0  0
M  CHG  1  48   1
M  END
> <energy>
33.1496

> <chiral flag>
0

> <version>
0

> <i_ionizer_Ion_state_n>
1

> <i_ionizer_Tot_Q>
1

> <s_ionizer_Ion_centers>
48

> <s_ionizer_Ion_types>
N5

> <s_ionizer_Ion_ctrs_in>
9

> <r_ionizer_Ionization_penalty>
0.00148639

> <r_ionizer_Ionization_penalty_charging>
0.00148639

> <r_ionizer_Ionization_penalty_neutral>
0

$$$$
ZINC001258447008
                    3D
 Structure written by MMmdl.
 49 49  0  0  1  0            999 V2000
   -3.5549   -2.0996    0.1645 C   0  0  0  0  0  0
   -4.2961   -0.7802    0.0212 C   0  0  0  0  0  0
   -3.3749    0.3781   -0.3657 C   0  0  0  0  0  0
   -2.4800    0.8542    0.7871 C   0  0  0  0  0  0
   -1.4735    1.9174    0.3233 C   0  0  0  0  0  0
   -0.2585    1.3311   -0.4627 C   0  0  1  0  0  0
    0.0112    2.2424   -1.6958 C   0  0  0  0  0  0
    0.4871    3.6502   -1.3585 C   0  0  0  0  0  0
    0.7931    0.4692    1.6425 C   0  0  0  0  0  0
    0.5816   -1.0458    1.6290 C   0  0  0  0  0  0
    1.8887   -1.8288    1.7454 C   0  0  0  0  0  0
    2.8322   -1.7011    0.5515 C   0  0  1  0  0  0
    2.2205   -2.3992   -0.5389 O   0  0  0  0  0  0
    3.1213   -2.7854   -1.5646 C   0  0  0  0  0  0
    3.1830   -0.2479    0.2048 C   0  0  0  0  0  0
    2.0566    0.5345   -0.4823 C   0  0  0  0  0  0
   -4.2655   -2.9138    0.3378 H   0  0  0  0  0  0
   -2.8579   -2.0847    1.0076 H   0  0  0  0  0  0
   -2.9894   -2.3337   -0.7431 H   0  0  0  0  0  0
   -5.0547   -0.8984   -0.7607 H   0  0  0  0  0  0
   -4.8310   -0.5536    0.9500 H   0  0  0  0  0  0
   -2.7673    0.0810   -1.2271 H   0  0  0  0  0  0
   -3.9968    1.2200   -0.6942 H   0  0  0  0  0  0
   -3.1209    1.2897    1.5623 H   0  0  0  0  0  0
   -1.9645    0.0117    1.2498 H   0  0  0  0  0  0
   -1.1248    2.4975    1.1852 H   0  0  0  0  0  0
   -2.0235    2.6382   -0.2967 H   0  0  0  0  0  0
   -0.5626    0.3570   -0.8658 H   0  0  0  0  0  0
    0.7402    1.7758   -2.3660 H   0  0  0  0  0  0
   -0.9087    2.3159   -2.2885 H   0  0  0  0  0  0
   -0.2825    4.2117   -0.8217 H   0  0  0  0  0  0
    1.3918    3.6426   -0.7431 H   0  0  0  0  0  0
    0.7160    4.1989   -2.2785 H   0  0  0  0  0  0
    1.6578    0.7109    2.2741 H   0  0  0  0  0  0
   -0.0297    0.9346    2.1915 H   0  0  0  0  0  0
   -0.0358   -1.3091    2.4980 H   0  0  0  0  0  0
    0.0139   -1.3628    0.7464 H   0  0  0  0  0  0
    1.6266   -2.8880    1.8718 H   0  0  0  0  0  0
    2.4104   -1.5249    2.6611 H   0  0  0  0  0  0
    3.7588   -2.2240    0.8211 H   0  0  0  0  0  0
    2.5597   -3.3603   -2.3064 H   0  0  0  0  0  0
    3.5452   -1.9113   -2.0626 H   0  0  0  0  0  0
    3.9162   -3.4222   -1.1675 H   0  0  0  0  0  0
    4.0282   -0.2637   -0.4980 H   0  0  0  0  0  0
    3.5553    0.2851    1.0879 H   0  0  0  0  0  0
    2.5405    1.3739   -0.9963 H   0  0  0  0  0  0
    1.6363   -0.0969   -1.2740 H   0  0  0  0  0  0
    1.0145    1.2028    0.3351 N   0  3  1  0  0  0
    1.3437    2.1491    0.5595 H   0  0  0  0  0  0
  1  2  1  0  0  0
  1 17  1  0  0  0
  1 18  1  0  0  0
  1 19  1  0  0  0
  2  3  1  0  0  0
  2 20  1  0  0  0
  2 21  1  0  0  0
  3  4  1  0  0  0
  3 22  1  0  0  0
  3 23  1  0  0  0
  4  5  1  0  0  0
  4 24  1  0  0  0
  4 25  1  0  0  0
  5  6  1  0  0  0
  5 26  1  0  0  0
  5 27  1  0  0  0
  6  7  1  0  0  0
  6 28  1  0  0  0
  6 48  1  0  0  0
  7  8  1  0  0  0
  7 29  1  0  0  0
  7 30  1  0  0  0
  8 31  1  0  0  0
  8 32  1  0  0  0
  8 33  1  0  0  0
  9 10  1  0  0  0
  9 34  1  0  0  0
  9 35  1  0  0  0
  9 48  1  0  0  0
 10 11  1  0  0  0
 10 36  1  0  0  0
 10 37  1  0  0  0
 11 12  1  0  0  0
 11 38  1  0  0  0
 11 39  1  0  0  0
 12 13  1  0  0  0
 12 15  1  0  0  0
 12 40  1  0  0  0
 13 14  1  0  0  0
 14 41  1  0  0  0
 14 42  1  0  0  0
 14 43  1  0  0  0
 15 16  1  0  0  0
 15 44  1  0  0  0
 15 45  1  0  0  0
 16 46  1  0  0  0
 16 47  1  0  0  0
 16 48  1  0  0  0
 48 49  1  0  0  0
M  CHG  1  48   1
M  END
> <energy>
33.1632

> <chiral flag>
0

> <version>
0

> <i_ionizer_Ion_state_n>
1

> <i_ionizer_Tot_Q>
1

> <s_ionizer_Ion_centers>
48

> <s_ionizer_Ion_types>
N5

> <s_ionizer_Ion_ctrs_in>
9

> <r_ionizer_Ionization_penalty>
0.00148639

> <r_ionizer_Ionization_penalty_charging>
0.00148639

> <r_ionizer_Ionization_penalty_neutral>
0

$$$$
ZINC001258447009
                    3D
 Structure written by MMmdl.
 49 49  0  0  1  0            999 V2000
   -4.4257   -2.9287    1.1687 C   0  0  0  0  0  0
   -3.6260   -1.6369    1.0741 C   0  0  0  0  0  0
   -2.3036   -1.7356    1.8363 C   0  0  0  0  0  0
   -1.5367   -0.4063    1.8997 C   0  0  0  0  0  0
   -1.1120    0.1008    0.5181 C   0  0  0  0  0  0
   -0.1306    1.3103    0.5865 C   0  0  2  0  0  0
   -0.8081    2.5715   -0.0093 C   0  0  0  0  0  0
   -2.0194    3.0313    0.8024 C   0  0  0  0  0  0
    2.0075    0.1157    0.8053 C   0  0  0  0  0  0
    2.4226   -1.1909    0.1253 C   0  0  0  0  0  0
    3.4857   -1.0900   -0.9685 C   0  0  0  0  0  0
    3.3325   -0.0086   -2.0475 C   0  0  1  0  0  0
    2.5038   -0.3071   -3.1687 O   0  0  0  0  0  0
    1.2489   -0.9085   -2.9226 C   0  0  0  0  0  0
    3.1624    1.4145   -1.5086 C   0  0  0  0  0  0
    1.7951    1.8237   -0.9474 C   0  0  0  0  0  0
   -4.5247   -3.2633    2.2072 H   0  0  0  0  0  0
   -3.9433   -3.7292    0.5960 H   0  0  0  0  0  0
   -5.4343   -2.7808    0.7652 H   0  0  0  0  0  0
   -3.4472   -1.4211    0.0149 H   0  0  0  0  0  0
   -4.2264   -0.8154    1.4787 H   0  0  0  0  0  0
   -2.5039   -2.0618    2.8655 H   0  0  0  0  0  0
   -1.6696   -2.5061    1.3776 H   0  0  0  0  0  0
   -2.1552    0.3476    2.3998 H   0  0  0  0  0  0
   -0.6499   -0.5646    2.5276 H   0  0  0  0  0  0
   -0.6551   -0.7384   -0.0211 H   0  0  0  0  0  0
   -1.9961    0.3593   -0.0776 H   0  0  0  0  0  0
    0.1018    1.5637    1.6299 H   0  0  0  0  0  0
   -0.1034    3.4110   -0.0270 H   0  0  0  0  0  0
   -1.1206    2.3835   -1.0440 H   0  0  0  0  0  0
   -1.7401    3.2291    1.8432 H   0  0  0  0  0  0
   -2.8236    2.2875    0.7952 H   0  0  0  0  0  0
   -2.4233    3.9592    0.3814 H   0  0  0  0  0  0
    1.4947   -0.1653    1.7318 H   0  0  0  0  0  0
    2.8713    0.7078    1.1324 H   0  0  0  0  0  0
    2.8151   -1.8665    0.8977 H   0  0  0  0  0  0
    1.5322   -1.6946   -0.2659 H   0  0  0  0  0  0
    3.5763   -2.0715   -1.4544 H   0  0  0  0  0  0
    4.4439   -0.9165   -0.4554 H   0  0  0  0  0  0
    4.3275    0.0147   -2.5115 H   0  0  0  0  0  0
    1.3613   -1.9033   -2.4832 H   0  0  0  0  0  0
    0.6059   -0.2803   -2.3092 H   0  0  0  0  0  0
    0.7515   -1.0399   -3.8882 H   0  0  0  0  0  0
    3.9288    1.5946   -0.7430 H   0  0  0  0  0  0
    3.3884    2.1187   -2.3220 H   0  0  0  0  0  0
    1.9546    2.7653   -0.4068 H   0  0  0  0  0  0
    1.1455    2.0462   -1.8032 H   0  0  0  0  0  0
    1.0861    0.7741   -0.1435 N   0  3  2  0  0  0
    0.7567    0.0593   -0.8030 H   0  0  0  0  0  0
  1  2  1  0  0  0
  1 17  1  0  0  0
  1 18  1  0  0  0
  1 19  1  0  0  0
  2  3  1  0  0  0
  2 20  1  0  0  0
  2 21  1  0  0  0
  3  4  1  0  0  0
  3 22  1  0  0  0
  3 23  1  0  0  0
  4  5  1  0  0  0
  4 24  1  0  0  0
  4 25  1  0  0  0
  5  6  1  0  0  0
  5 26  1  0  0  0
  5 27  1  0  0  0
  6  7  1  0  0  0
  6 28  1  0  0  0
  6 48  1  0  0  0
  7  8  1  0  0  0
  7 29  1  0  0  0
  7 30  1  0  0  0
  8 31  1  0  0  0
  8 32  1  0  0  0
  8 33  1  0  0  0
  9 10  1  0  0  0
  9 34  1  0  0  0
  9 35  1  0  0  0
  9 48  1  0  0  0
 10 11  1  0  0  0
 10 36  1  0  0  0
 10 37  1  0  0  0
 11 12  1  0  0  0
 11 38  1  0  0  0
 11 39  1  0  0  0
 12 13  1  0  0  0
 12 15  1  0  0  0
 12 40  1  0  0  0
 13 14  1  0  0  0
 14 41  1  0  0  0
 14 42  1  0  0  0
 14 43  1  0  0  0
 15 16  1  0  0  0
 15 44  1  0  0  0
 15 45  1  0  0  0
 16 46  1  0  0  0
 16 47  1  0  0  0
 16 48  1  0  0  0
 48 49  1  0  0  0
M  CHG  1  48   1
M  END
> <energy>
40.1115

> <chiral flag>
0

> <version>
0

> <i_ionizer_Ion_state_n>
1

> <i_ionizer_Tot_Q>
1

> <s_ionizer_Ion_centers>
48

> <s_ionizer_Ion_types>
N5

> <s_ionizer_Ion_ctrs_in>
9

> <r_ionizer_Ionization_penalty>
0.00148639

> <r_ionizer_Ionization_penalty_charging>
0.00148639

> <r_ionizer_Ionization_penalty_neutral>
0

$$$$
ZINC001258447017
                    3D
 Structure written by MMmdl.
 47 47  0  0  1  0            999 V2000
   -5.2650   -0.1474    0.0497 C   0  0  0  0  0  0
   -3.9734    0.5247    0.4851 C   0  0  0  0  0  0
   -2.7644    0.1834   -0.3915 C   0  0  0  0  0  0
   -2.4497   -1.3169   -0.4452 C   0  0  0  0  0  0
   -1.0141   -1.6033   -0.9061 C   0  0  0  0  0  0
    0.0422   -1.2901    0.1997 C   0  0  1  0  0  0
    0.6669   -2.6206    0.6899 C   0  0  0  0  0  0
    1.5999   -2.5043    1.8847 C   0  0  0  0  0  0
    1.9991   -0.7173   -1.2148 C   0  0  0  0  0  0
    2.6135    0.4538   -1.9681 C   0  0  0  0  0  0
    3.0727    1.5192   -0.9986 C   0  0  0  0  0  0
    4.1602    2.0800   -1.1579 O   0  0  0  0  0  0
    2.0920    1.9328    0.1015 C   0  0  0  0  0  0
    1.0055    2.8260   -0.5129 C   0  0  0  0  0  0
    2.8249    2.7218    1.1984 C   0  0  0  0  0  0
    1.4927    0.6494    0.7153 C   0  0  0  0  0  0
   -5.2125   -1.2317    0.1821 H   0  0  0  0  0  0
   -5.4918    0.0659   -0.9990 H   0  0  0  0  0  0
   -6.0996    0.2189    0.6569 H   0  0  0  0  0  0
   -4.1184    1.6118    0.4665 H   0  0  0  0  0  0
   -3.7600    0.2526    1.5259 H   0  0  0  0  0  0
   -2.9364    0.5500   -1.4130 H   0  0  0  0  0  0
   -1.9043    0.7434   -0.0033 H   0  0  0  0  0  0
   -3.1404   -1.7948   -1.1511 H   0  0  0  0  0  0
   -2.6195   -1.7862    0.5311 H   0  0  0  0  0  0
   -0.8203   -1.0371   -1.8281 H   0  0  0  0  0  0
   -0.9485   -2.6602   -1.1962 H   0  0  0  0  0  0
   -0.5023   -0.8717    1.0553 H   0  0  0  0  0  0
   -0.1539   -3.2890    0.9863 H   0  0  0  0  0  0
    1.1933   -3.1266   -0.1286 H   0  0  0  0  0  0
    1.1250   -1.9695    2.7129 H   0  0  0  0  0  0
    2.5338   -2.0020    1.6257 H   0  0  0  0  0  0
    1.8658   -3.5033    2.2440 H   0  0  0  0  0  0
    2.7806   -1.2452   -0.6547 H   0  0  0  0  0  0
    1.5986   -1.4201   -1.9563 H   0  0  0  0  0  0
    3.4765    0.1052   -2.5483 H   0  0  0  0  0  0
    1.8951    0.9026   -2.6644 H   0  0  0  0  0  0
    0.3048    3.1768    0.2519 H   0  0  0  0  0  0
    0.4240    2.3052   -1.2798 H   0  0  0  0  0  0
    1.4463    3.7070   -0.9918 H   0  0  0  0  0  0
    2.1432    2.9978    2.0108 H   0  0  0  0  0  0
    3.2614    3.6453    0.8014 H   0  0  0  0  0  0
    3.6446    2.1362    1.6298 H   0  0  0  0  0  0
    2.2626    0.1299    1.2954 H   0  0  0  0  0  0
    0.7056    0.9403    1.4246 H   0  0  0  0  0  0
    0.9070   -0.1840   -0.3616 N   0  3  2  0  0  0
    0.3100    0.4157   -0.9431 H   0  0  0  0  0  0
  1  2  1  0  0  0
  1 17  1  0  0  0
  1 18  1  0  0  0
  1 19  1  0  0  0
  2  3  1  0  0  0
  2 20  1  0  0  0
  2 21  1  0  0  0
  3  4  1  0  0  0
  3 22  1  0  0  0
  3 23  1  0  0  0
  4  5  1  0  0  0
  4 24  1  0  0  0
  4 25  1  0  0  0
  5  6  1  0  0  0
  5 26  1  0  0  0
  5 27  1  0  0  0
  6  7  1  0  0  0
  6 28  1  0  0  0
  6 46  1  0  0  0
  7  8  1  0  0  0
  7 29  1  0  0  0
  7 30  1  0  0  0
  8 31  1  0  0  0
  8 32  1  0  0  0
  8 33  1  0  0  0
  9 10  1  0  0  0
  9 34  1  0  0  0
  9 35  1  0  0  0
  9 46  1  0  0  0
 10 11  1  0  0  0
 10 36  1  0  0  0
 10 37  1  0  0  0
 11 12  2  0  0  0
 11 13  1  0  0  0
 13 14  1  0  0  0
 13 15  1  0  0  0
 13 16  1  0  0  0
 14 38  1  0  0  0
 14 39  1  0  0  0
 14 40  1  0  0  0
 15 41  1  0  0  0
 15 42  1  0  0  0
 15 43  1  0  0  0
 16 44  1  0  0  0
 16 45  1  0  0  0
 16 46  1  0  0  0
 46 47  1  0  0  0
M  CHG  1  46   1
M  END
> <energy>
20.7737

> <chiral flag>
0

> <version>
0

> <i_ionizer_Ion_state_n>
1

> <i_ionizer_Tot_Q>
1

> <s_ionizer_Ion_centers>
46

> <s_ionizer_Ion_types>
N5

> <s_ionizer_Ion_ctrs_in>
9

> <r_ionizer_Ionization_penalty>
0.00148639

> <r_ionizer_Ionization_penalty_charging>
0.00148639

> <r_ionizer_Ionization_penalty_neutral>
0

$$$$
ZINC001258447018
                    3D
 Structure written by MMmdl.
 47 47  0  0  1  0            999 V2000
   -4.0422   -3.3328    0.1465 C   0  0  0  0  0  0
   -4.1388   -1.8313    0.3499 C   0  0  0  0  0  0
   -2.8388   -1.1496   -0.0675 C   0  0  0  0  0  0
   -2.9139    0.3747    0.0781 C   0  0  0  0  0  0
   -1.6404    1.0599   -0.4410 C   0  0  0  0  0  0
   -0.4244    0.9343    0.5201 C   0  0  2  0  0  0
   -0.4623    2.0840    1.5608 C   0  0  0  0  0  0
    0.4116    1.8808    2.7898 C   0  0  0  0  0  0
    1.1213    1.8875   -1.2123 C   0  0  0  0  0  0
    2.5213    1.7876   -1.8180 C   0  0  0  0  0  0
    3.0109    0.3569   -1.8912 C   0  0  0  0  0  0
    3.6411   -0.0346   -2.8774 O   0  0  0  0  0  0
    2.7870   -0.5352   -0.6666 C   0  0  0  0  0  0
    4.1497   -0.9155   -0.0767 C   0  0  0  0  0  0
    2.0404   -1.8063   -1.1145 C   0  0  0  0  0  0
    1.9667    0.2422    0.3839 C   0  0  0  0  0  0
   -3.8470   -3.5710   -0.9045 H   0  0  0  0  0  0
   -3.2325   -3.7559    0.7491 H   0  0  0  0  0  0
   -4.9763   -3.8210    0.4368 H   0  0  0  0  0  0
   -4.9766   -1.4427   -0.2390 H   0  0  0  0  0  0
   -4.3490   -1.6161    1.4039 H   0  0  0  0  0  0
   -2.6183   -1.4009   -1.1124 H   0  0  0  0  0  0
   -2.0185   -1.5488    0.5384 H   0  0  0  0  0  0
   -3.1007    0.6466    1.1242 H   0  0  0  0  0  0
   -3.7652    0.7451   -0.5043 H   0  0  0  0  0  0
   -1.4106    0.6303   -1.4244 H   0  0  0  0  0  0
   -1.8526    2.1232   -0.6139 H   0  0  0  0  0  0
   -0.5426   -0.0079    1.0685 H   0  0  0  0  0  0
   -0.2035    3.0372    1.0895 H   0  0  0  0  0  0
   -1.4914    2.2044    1.9200 H   0  0  0  0  0  0
    0.1911    2.6550    3.5333 H   0  0  0  0  0  0
    0.2123    0.9119    3.2598 H   0  0  0  0  0  0
    1.4760    1.9506    2.5568 H   0  0  0  0  0  0
    1.0349    2.8789   -0.7506 H   0  0  0  0  0  0
    0.3978    1.8666   -2.0340 H   0  0  0  0  0  0
    2.5190    2.2153   -2.8276 H   0  0  0  0  0  0
    3.2433    2.3477   -1.2131 H   0  0  0  0  0  0
    4.7526   -1.4881   -0.7940 H   0  0  0  0  0  0
    4.0312   -1.5255    0.8248 H   0  0  0  0  0  0
    4.7286   -0.0225    0.1866 H   0  0  0  0  0  0
    1.8176   -2.4539   -0.2581 H   0  0  0  0  0  0
    2.6374   -2.3902   -1.8266 H   0  0  0  0  0  0
    1.0929   -1.5694   -1.6155 H   0  0  0  0  0  0
    2.5762    1.0284    0.8478 H   0  0  0  0  0  0
    1.6798   -0.4467    1.1876 H   0  0  0  0  0  0
    0.7791    0.7003   -0.3748 N   0  3  1  0  0  0
    0.5233   -0.0570   -1.0193 H   0  0  0  0  0  0
  1  2  1  0  0  0
  1 17  1  0  0  0
  1 18  1  0  0  0
  1 19  1  0  0  0
  2  3  1  0  0  0
  2 20  1  0  0  0
  2 21  1  0  0  0
  3  4  1  0  0  0
  3 22  1  0  0  0
  3 23  1  0  0  0
  4  5  1  0  0  0
  4 24  1  0  0  0
  4 25  1  0  0  0
  5  6  1  0  0  0
  5 26  1  0  0  0
  5 27  1  0  0  0
  6  7  1  0  0  0
  6 28  1  0  0  0
  6 46  1  0  0  0
  7  8  1  0  0  0
  7 29  1  0  0  0
  7 30  1  0  0  0
  8 31  1  0  0  0
  8 32  1  0  0  0
  8 33  1  0  0  0
  9 10  1  0  0  0
  9 34  1  0  0  0
  9 35  1  0  0  0
  9 46  1  0  0  0
 10 11  1  0  0  0
 10 36  1  0  0  0
 10 37  1  0  0  0
 11 12  2  0  0  0
 11 13  1  0  0  0
 13 14  1  0  0  0
 13 15  1  0  0  0
 13 16  1  0  0  0
 14 38  1  0  0  0
 14 39  1  0  0  0
 14 40  1  0  0  0
 15 41  1  0  0  0
 15 42  1  0  0  0
 15 43  1  0  0  0
 16 44  1  0  0  0
 16 45  1  0  0  0
 16 46  1  0  0  0
 46 47  1  0  0  0
M  CHG  1  46   1
M  END
> <energy>
23.9795

> <chiral flag>
0

> <version>
0

> <i_ionizer_Ion_state_n>
1

> <i_ionizer_Tot_Q>
1

> <s_ionizer_Ion_centers>
46

> <s_ionizer_Ion_types>
N5

> <s_ionizer_Ion_ctrs_in>
9

> <r_ionizer_Ionization_penalty>
0.00148639

> <r_ionizer_Ionization_penalty_charging>
0.00148639

> <r_ionizer_Ionization_penalty_neutral>
0

$$$$
ZINC001258447058
                    3D
 Structure written by MMmdl.
 37 38  0  0  1  0            999 V2000
   -2.3365   -1.7182   -1.0865 C   0  0  0  0  0  0
   -1.6259   -0.5201   -0.4349 C   0  0  1  0  0  0
   -2.1249   -0.3295    1.0186 C   0  0  0  0  0  0
   -3.4175    0.4424    1.0838 C   0  0  0  0  0  0
   -3.4040    1.9499    1.0969 C   0  0  0  0  0  0
   -3.7747    1.1927    2.3403 C   0  0  0  0  0  0
    0.6206    0.4285   -0.2760 C   0  0  0  0  0  0
    2.0834    0.0707   -0.1064 C   0  0  0  0  0  0
    2.5343   -0.3010    1.1749 C   0  0  0  0  0  0
    3.8686   -0.6394    1.3983 C   0  0  0  0  0  0
    4.7760   -0.6180    0.3448 C   0  0  0  0  0  0
    4.3458   -0.2694   -0.9359 C   0  0  0  0  0  0
    3.0007    0.0634   -1.1821 C   0  0  0  0  0  0
    2.5709    0.4038   -2.5862 C   0  0  0  0  0  0
    2.1823    1.7030   -2.7091 F   0  0  0  0  0  0
    1.5124   -0.3463   -3.0070 F   0  0  0  0  0  0
   -3.4181   -1.5537   -1.1381 H   0  0  0  0  0  0
   -2.1614   -2.6422   -0.5244 H   0  0  0  0  0  0
   -1.9828   -1.8751   -2.1108 H   0  0  0  0  0  0
   -1.8532    0.3673   -1.0397 H   0  0  0  0  0  0
   -2.2621   -1.3042    1.5035 H   0  0  0  0  0  0
   -1.3781    0.1978    1.6226 H   0  0  0  0  0  0
   -4.2280   -0.0557    0.5655 H   0  0  0  0  0  0
   -4.1939    2.4713    0.5660 H   0  0  0  0  0  0
   -2.4507    2.4676    1.0906 H   0  0  0  0  0  0
   -3.0667    1.2035    3.1624 H   0  0  0  0  0  0
   -4.8135    1.2038    2.6524 H   0  0  0  0  0  0
    0.4814    1.1279   -1.1075 H   0  0  0  0  0  0
    0.3129    0.9817    0.6174 H   0  0  0  0  0  0
    1.8314   -0.3345    2.0078 H   0  0  0  0  0  0
    4.1963   -0.9197    2.3952 H   0  0  0  0  0  0
    5.8163   -0.8798    0.5167 H   0  0  0  0  0  0
    5.0748   -0.2681   -1.7462 H   0  0  0  0  0  0
    3.3849    0.2382   -3.2985 H   0  0  0  0  0  0
   -0.1676   -0.8039   -0.4774 N   0  3  0  0  0  0
    0.0650   -1.4754    0.2637 H   0  0  0  0  0  0
    0.0689   -1.2074   -1.3915 H   0  0  0  0  0  0
  1  2  1  0  0  0
  1 17  1  0  0  0
  1 18  1  0  0  0
  1 19  1  0  0  0
  2  3  1  0  0  0
  2 20  1  0  0  0
  2 35  1  0  0  0
  3  4  1  0  0  0
  3 21  1  0  0  0
  3 22  1  0  0  0
  4  5  1  0  0  0
  4  6  1  0  0  0
  4 23  1  0  0  0
  5  6  1  0  0  0
  5 24  1  0  0  0
  5 25  1  0  0  0
  6 26  1  0  0  0
  6 27  1  0  0  0
  7  8  1  0  0  0
  7 28  1  0  0  0
  7 29  1  0  0  0
  7 35  1  0  0  0
  8  9  2  0  0  0
  8 13  1  0  0  0
  9 10  1  0  0  0
  9 30  1  0  0  0
 10 11  2  0  0  0
 10 31  1  0  0  0
 11 12  1  0  0  0
 11 32  1  0  0  0
 12 13  2  0  0  0
 12 33  1  0  0  0
 13 14  1  0  0  0
 14 15  1  0  0  0
 14 16  1  0  0  0
 14 34  1  0  0  0
 35 36  1  0  0  0
 35 37  1  0  0  0
M  CHG  1  35   1
M  END
> <energy>
57.9448

> <chiral flag>
0

> <version>
0

> <i_ionizer_Ion_state_n>
1

> <i_ionizer_Tot_Q>
1

> <s_ionizer_Ion_centers>
35

> <s_ionizer_Ion_types>
N5

> <s_ionizer_Ion_ctrs_in>
7

> <r_ionizer_Ionization_penalty>
0.000148807

> <r_ionizer_Ionization_penalty_charging>
0.000148807

> <r_ionizer_Ionization_penalty_neutral>
0

$$$$
ZINC001258447060
                    3D
 Structure written by MMmdl.
 37 38  0  0  1  0            999 V2000
   -2.2902    2.2891   -0.1236 C   0  0  0  0  0  0
   -1.8733    0.8856    0.3293 C   0  0  2  0  0  0
   -0.7017    0.9734    1.3317 C   0  0  0  0  0  0
   -0.3703   -0.3380    1.9876 C   0  0  0  0  0  0
    0.2636   -0.3485    3.3550 C   0  0  0  0  0  0
   -1.1526   -0.8227    3.1789 C   0  0  0  0  0  0
   -0.8218    0.3275   -1.8927 C   0  0  0  0  0  0
    0.6494    0.0565   -1.6556 C   0  0  0  0  0  0
    1.5264    1.1517   -1.5431 C   0  0  0  0  0  0
    2.8893    0.9613   -1.3185 C   0  0  0  0  0  0
    3.4004   -0.3267   -1.2043 C   0  0  0  0  0  0
    2.5515   -1.4254   -1.3317 C   0  0  0  0  0  0
    1.1761   -1.2548   -1.5717 C   0  0  0  0  0  0
    0.3033   -2.4781   -1.7379 C   0  0  0  0  0  0
   -0.6226   -2.6018   -0.7450 F   0  0  0  0  0  0
    1.0038   -3.6492   -1.7284 F   0  0  0  0  0  0
   -1.4593    2.8350   -0.5836 H   0  0  0  0  0  0
   -2.6338    2.8780    0.7341 H   0  0  0  0  0  0
   -3.1174    2.2436   -0.8405 H   0  0  0  0  0  0
   -2.7286    0.4844    0.8892 H   0  0  0  0  0  0
    0.1968    1.3730    0.8543 H   0  0  0  0  0  0
   -0.9693    1.7018    2.1092 H   0  0  0  0  0  0
   -0.0019   -1.0738    1.2833 H   0  0  0  0  0  0
    1.0283   -1.0917    3.5521 H   0  0  0  0  0  0
    0.4259    0.5965    3.8615 H   0  0  0  0  0  0
   -1.9487   -0.1995    3.5706 H   0  0  0  0  0  0
   -1.3463   -1.8869    3.2559 H   0  0  0  0  0  0
   -0.9787    1.3664   -2.2032 H   0  0  0  0  0  0
   -1.1215   -0.2532   -2.7740 H   0  0  0  0  0  0
    1.1460    2.1695   -1.6160 H   0  0  0  0  0  0
    3.5503    1.8188   -1.2260 H   0  0  0  0  0  0
    4.4608   -0.4778   -1.0195 H   0  0  0  0  0  0
    2.9713   -2.4266   -1.2441 H   0  0  0  0  0  0
   -0.2256   -2.4375   -2.6945 H   0  0  0  0  0  0
   -1.7374   -0.1036   -0.7967 N   0  3  0  0  0  0
   -1.3800   -0.9844   -0.4084 H   0  0  0  0  0  0
   -2.6685   -0.2603   -1.2001 H   0  0  0  0  0  0
  1  2  1  0  0  0
  1 17  1  0  0  0
  1 18  1  0  0  0
  1 19  1  0  0  0
  2  3  1  0  0  0
  2 20  1  0  0  0
  2 35  1  0  0  0
  3  4  1  0  0  0
  3 21  1  0  0  0
  3 22  1  0  0  0
  4  5  1  0  0  0
  4  6  1  0  0  0
  4 23  1  0  0  0
  5  6  1  0  0  0
  5 24  1  0  0  0
  5 25  1  0  0  0
  6 26  1  0  0  0
  6 27  1  0  0  0
  7  8  1  0  0  0
  7 28  1  0  0  0
  7 29  1  0  0  0
  7 35  1  0  0  0
  8  9  2  0  0  0
  8 13  1  0  0  0
  9 10  1  0  0  0
  9 30  1  0  0  0
 10 11  2  0  0  0
 10 31  1  0  0  0
 11 12  1  0  0  0
 11 32  1  0  0  0
 12 13  2  0  0  0
 12 33  1  0  0  0
 13 14  1  0  0  0
 14 15  1  0  0  0
 14 16  1  0  0  0
 14 34  1  0  0  0
 35 36  1  0  0  0
 35 37  1  0  0  0
M  CHG  1  35   1
M  END
> <energy>
61.2079

> <chiral flag>
0

> <version>
0

> <i_ionizer_Ion_state_n>
1

> <i_ionizer_Tot_Q>
1

> <s_ionizer_Ion_centers>
35

> <s_ionizer_Ion_types>
N5

> <s_ionizer_Ion_ctrs_in>
7

> <r_ionizer_Ionization_penalty>
0.000148807

> <r_ionizer_Ionization_penalty_charging>
0.000148807

> <r_ionizer_Ionization_penalty_neutral>
0

$$$$
ZINC001258447062
                    3D
 Structure written by MMmdl.
 45 46  0  0  1  0            999 V2000
   -5.0982   -0.4044    1.1014 C   0  0  0  0  0  0
   -3.6159   -0.2665    0.7931 C   0  0  0  0  0  0
   -3.3466    0.9167   -0.1387 C   0  0  0  0  0  0
   -1.8734    1.0202   -0.5459 C   0  0  0  0  0  0
   -0.9897    1.6121    0.5632 C   0  0  0  0  0  0
    0.5472    1.4094    0.4356 C   0  0  2  0  0  0
    1.0751    1.4500   -1.0172 C   0  0  0  0  0  0
    0.9148    2.8203   -1.6669 C   0  0  0  0  0  0
    2.4663    0.3023    1.5335 C   0  0  0  0  0  0
    3.2949   -0.9736    1.2582 C   0  0  0  0  0  0
    2.8032   -1.7035    0.0397 C   0  0  0  0  0  0
    3.6398   -2.3697   -0.8501 C   0  0  0  0  0  0
    3.0522   -3.0516   -1.9049 C   0  0  0  0  0  0
    1.7181   -3.1176   -2.1193 N   0  0  0  0  0  0
    0.9295   -2.4684   -1.2343 C   0  0  0  0  0  0
    1.4183   -1.7526   -0.1532 C   0  0  0  0  0  0
    0.5392   -1.0776    0.8564 C   0  0  0  0  0  0
   -5.4826    0.4952    1.5923 H   0  0  0  0  0  0
   -5.6741   -0.5687    0.1847 H   0  0  0  0  0  0
   -5.2687   -1.2565    1.7669 H   0  0  0  0  0  0
   -3.0669   -0.1498    1.7332 H   0  0  0  0  0  0
   -3.2616   -1.1930    0.3271 H   0  0  0  0  0  0
   -3.9473    0.7933   -1.0489 H   0  0  0  0  0  0
   -3.6724    1.8528    0.3310 H   0  0  0  0  0  0
   -1.5232    0.0415   -0.8815 H   0  0  0  0  0  0
   -1.8194    1.6739   -1.4246 H   0  0  0  0  0  0
   -1.1860    2.6933    0.5907 H   0  0  0  0  0  0
   -1.3119    1.2494    1.5465 H   0  0  0  0  0  0
    0.9673    2.2872    0.9487 H   0  0  0  0  0  0
    0.5850    0.6936   -1.6382 H   0  0  0  0  0  0
    2.1446    1.2134   -1.0436 H   0  0  0  0  0  0
    1.3402    2.8069   -2.6759 H   0  0  0  0  0  0
   -0.1324    3.1209   -1.7504 H   0  0  0  0  0  0
    1.4427    3.5877   -1.0905 H   0  0  0  0  0  0
    2.9468    1.1221    0.9854 H   0  0  0  0  0  0
    2.5863    0.5684    2.5917 H   0  0  0  0  0  0
    3.2205   -1.6534    2.1162 H   0  0  0  0  0  0
    4.3503   -0.6997    1.1456 H   0  0  0  0  0  0
    4.7171   -2.3650   -0.7319 H   0  0  0  0  0  0
    3.6596   -3.5877   -2.6292 H   0  0  0  0  0  0
   -0.1361   -2.5479   -1.4273 H   0  0  0  0  0  0
   -0.5030   -1.0700    0.5363 H   0  0  0  0  0  0
    0.5349   -1.7069    1.7574 H   0  0  0  0  0  0
    0.9895    0.2777    1.3471 N   0  3  2  0  0  0
    0.5543    0.4331    2.2640 H   0  0  0  0  0  0
  1  2  1  0  0  0
  1 18  1  0  0  0
  1 19  1  0  0  0
  1 20  1  0  0  0
  2  3  1  0  0  0
  2 21  1  0  0  0
  2 22  1  0  0  0
  3  4  1  0  0  0
  3 23  1  0  0  0
  3 24  1  0  0  0
  4  5  1  0  0  0
  4 25  1  0  0  0
  4 26  1  0  0  0
  5  6  1  0  0  0
  5 27  1  0  0  0
  5 28  1  0  0  0
  6  7  1  0  0  0
  6 29  1  0  0  0
  6 44  1  0  0  0
  7  8  1  0  0  0
  7 30  1  0  0  0
  7 31  1  0  0  0
  8 32  1  0  0  0
  8 33  1  0  0  0
  8 34  1  0  0  0
  9 10  1  0  0  0
  9 35  1  0  0  0
  9 36  1  0  0  0
  9 44  1  0  0  0
 10 11  1  0  0  0
 10 37  1  0  0  0
 10 38  1  0  0  0
 11 12  2  0  0  0
 11 16  1  0  0  0
 12 13  1  0  0  0
 12 39  1  0  0  0
 13 14  2  0  0  0
 13 40  1  0  0  0
 14 15  1  0  0  0
 15 16  2  0  0  0
 15 41  1  0  0  0
 16 17  1  0  0  0
 17 42  1  0  0  0
 17 43  1  0  0  0
 17 44  1  0  0  0
 44 45  1  0  0  0
M  CHG  1  44   1
M  END
> <energy>
52.8899

> <chiral flag>
0

> <version>
0

> <i_ionizer_Ion_state_n>
1

> <i_ionizer_Tot_Q>
1

> <s_ionizer_Ion_centers>
44

> <s_ionizer_Ion_types>
N5

> <s_ionizer_Ion_ctrs_in>
9

> <r_ionizer_Ionization_penalty>
0.00889878

> <r_ionizer_Ionization_penalty_charging>
0.00148639

> <r_ionizer_Ionization_penalty_neutral>
0.00741239

$$$$
ZINC001258447063
                    3D
 Structure written by MMmdl.
 45 46  0  0  1  0            999 V2000
    1.2726   -1.5115   -3.0531 C   0  0  0  0  0  0
   -0.0689   -1.5615   -2.3402 C   0  0  0  0  0  0
   -0.9879   -0.4088   -2.7595 C   0  0  0  0  0  0
   -2.0764   -0.0998   -1.7186 C   0  0  0  0  0  0
   -1.8178    1.1860   -0.9147 C   0  0  0  0  0  0
   -0.5015    1.1957   -0.0767 C   0  0  1  0  0  0
    0.2922    2.4837   -0.4453 C   0  0  0  0  0  0
   -0.3263    3.7905    0.0406 C   0  0  0  0  0  0
   -1.5466   -0.0782    1.8215 C   0  0  0  0  0  0
   -0.9210   -1.4817    1.6797 C   0  0  0  0  0  0
    0.5659   -1.5148    1.9181 C   0  0  0  0  0  0
    1.2602   -2.7278    1.9424 C   0  0  0  0  0  0
    2.6370   -2.6920    2.1017 C   0  0  0  0  0  0
    3.3545   -1.5552    2.2249 N   0  0  0  0  0  0
    2.6563   -0.3964    2.2059 C   0  0  0  0  0  0
    1.2747   -0.3164    2.0622 C   0  0  0  0  0  0
    0.5503    1.0012    2.1613 C   0  0  0  0  0  0
    1.1518   -1.6554   -4.1314 H   0  0  0  0  0  0
    1.7739   -0.5521   -2.8873 H   0  0  0  0  0  0
    1.9269   -2.2988   -2.6703 H   0  0  0  0  0  0
    0.1189   -1.5500   -1.2652 H   0  0  0  0  0  0
   -0.5664   -2.5149   -2.5559 H   0  0  0  0  0  0
   -0.4103    0.4964   -2.9826 H   0  0  0  0  0  0
   -1.4692   -0.6969   -3.7050 H   0  0  0  0  0  0
   -3.0200    0.0491   -2.2624 H   0  0  0  0  0  0
   -2.2460   -0.9472   -1.0495 H   0  0  0  0  0  0
   -1.8176    2.0135   -1.6349 H   0  0  0  0  0  0
   -2.6877    1.3871   -0.2767 H   0  0  0  0  0  0
    0.1292    0.3674   -0.4069 H   0  0  0  0  0  0
    0.3965    2.5341   -1.5382 H   0  0  0  0  0  0
    1.3228    2.4198   -0.0742 H   0  0  0  0  0  0
   -0.3376    3.8529    1.1316 H   0  0  0  0  0  0
    0.2661    4.6308   -0.3363 H   0  0  0  0  0  0
   -1.3538    3.9173   -0.3188 H   0  0  0  0  0  0
   -1.7669    0.0732    2.8862 H   0  0  0  0  0  0
   -2.5350   -0.0673    1.3483 H   0  0  0  0  0  0
   -1.1156   -1.8707    0.6750 H   0  0  0  0  0  0
   -1.4155   -2.1561    2.3901 H   0  0  0  0  0  0
    0.7440   -3.6772    1.8406 H   0  0  0  0  0  0
    3.2151   -3.6090    2.1276 H   0  0  0  0  0  0
    3.2643    0.4946    2.3218 H   0  0  0  0  0  0
    0.3100    1.1591    3.2217 H   0  0  0  0  0  0
    1.2174    1.8265    1.9122 H   0  0  0  0  0  0
   -0.7300    1.1008    1.4345 N   0  3  1  0  0  0
   -1.2194    1.9521    1.7344 H   0  0  0  0  0  0
  1  2  1  0  0  0
  1 18  1  0  0  0
  1 19  1  0  0  0
  1 20  1  0  0  0
  2  3  1  0  0  0
  2 21  1  0  0  0
  2 22  1  0  0  0
  3  4  1  0  0  0
  3 23  1  0  0  0
  3 24  1  0  0  0
  4  5  1  0  0  0
  4 25  1  0  0  0
  4 26  1  0  0  0
  5  6  1  0  0  0
  5 27  1  0  0  0
  5 28  1  0  0  0
  6  7  1  0  0  0
  6 29  1  0  0  0
  6 44  1  0  0  0
  7  8  1  0  0  0
  7 30  1  0  0  0
  7 31  1  0  0  0
  8 32  1  0  0  0
  8 33  1  0  0  0
  8 34  1  0  0  0
  9 10  1  0  0  0
  9 35  1  0  0  0
  9 36  1  0  0  0
  9 44  1  0  0  0
 10 11  1  0  0  0
 10 37  1  0  0  0
 10 38  1  0  0  0
 11 12  2  0  0  0
 11 16  1  0  0  0
 12 13  1  0  0  0
 12 39  1  0  0  0
 13 14  2  0  0  0
 13 40  1  0  0  0
 14 15  1  0  0  0
 15 16  2  0  0  0
 15 41  1  0  0  0
 16 17  1  0  0  0
 17 42  1  0  0  0
 17 43  1  0  0  0
 17 44  1  0  0  0
 44 45  1  0  0  0
M  CHG  1  44   1
M  END
> <energy>
51.6759

> <chiral flag>
0

> <version>
0

> <i_ionizer_Ion_state_n>
1

> <i_ionizer_Tot_Q>
1

> <s_ionizer_Ion_centers>
44

> <s_ionizer_Ion_types>
N5

> <s_ionizer_Ion_ctrs_in>
9

> <r_ionizer_Ionization_penalty>
0.00889878

> <r_ionizer_Ionization_penalty_charging>
0.00148639

> <r_ionizer_Ionization_penalty_neutral>
0.00741239

$$$$
ZINC001258447076
                    3D
 Structure written by MMmdl.
 47 48  0  0  1  0            999 V2000
   -3.5250   -1.8996    1.2183 C   0  0  0  0  0  0
   -2.6613   -0.8366    0.5513 C   0  0  0  0  0  0
   -2.4667   -1.1204   -0.9349 C   0  0  0  0  0  0
   -1.6405   -0.1106   -1.7548 C   0  0  0  0  0  0
   -1.2570    1.2201   -1.0999 C   0  0  0  0  0  0
    0.1328    1.4119   -0.4024 C   0  0  1  0  0  0
   -0.0496    2.4794    0.7258 C   0  0  0  0  0  0
   -0.8304    2.0188    1.9482 C   0  0  0  0  0  0
    1.4944   -0.6394   -1.0225 C   0  0  1  0  0  0
    1.1655   -2.0817   -0.7176 C   0  0  0  0  0  0
    1.5167   -2.2484    0.8106 C   0  0  0  0  0  0
    2.3937   -1.0625    1.4202 C   0  0  0  0  0  0
    2.0293    0.3994    0.8827 C   0  0  1  0  0  0
    3.1478    1.1557    0.0175 C   0  0  0  0  0  0
    3.2734    0.9056   -1.4314 O   0  0  0  0  0  0
    2.1950    0.1575   -2.0973 C   0  0  0  0  0  0
   -4.5199   -1.9285    0.7625 H   0  0  0  0  0  0
   -3.0760   -2.8930    1.1263 H   0  0  0  0  0  0
   -3.6473   -1.6688    2.2808 H   0  0  0  0  0  0
   -1.6934   -0.7903    1.0611 H   0  0  0  0  0  0
   -3.1637    0.1266    0.6886 H   0  0  0  0  0  0
   -3.4580   -1.2069   -1.3998 H   0  0  0  0  0  0
   -2.0258   -2.1152   -1.0507 H   0  0  0  0  0  0
   -2.2652    0.1368   -2.6248 H   0  0  0  0  0  0
   -0.7725   -0.6023   -2.2031 H   0  0  0  0  0  0
   -2.0726    1.5458   -0.4507 H   0  0  0  0  0  0
   -1.2708    1.9613   -1.9109 H   0  0  0  0  0  0
    0.7519    1.9486   -1.1295 H   0  0  0  0  0  0
    0.9293    2.8475    1.0510 H   0  0  0  0  0  0
   -0.5500    3.3638    0.3080 H   0  0  0  0  0  0
   -0.7128    2.7490    2.7529 H   0  0  0  0  0  0
   -1.8983    1.9415    1.7360 H   0  0  0  0  0  0
   -0.4805    1.0518    2.3220 H   0  0  0  0  0  0
    2.5193   -0.9232   -0.7228 H   0  0  0  0  0  0
    0.1252   -2.3471   -0.9032 H   0  0  0  0  0  0
    1.7805   -2.7645   -1.3204 H   0  0  0  0  0  0
    2.0278   -3.2046    0.9751 H   0  0  0  0  0  0
    0.5754   -2.3012    1.3742 H   0  0  0  0  0  0
    2.2604   -1.0897    2.5077 H   0  0  0  0  0  0
    3.4541   -1.2695    1.2292 H   0  0  0  0  0  0
    1.8336    0.9894    1.7846 H   0  0  0  0  0  0
    2.9738    2.2343    0.1000 H   0  0  0  0  0  0
    4.1326    0.9634    0.4556 H   0  0  0  0  0  0
    2.6742   -0.4989   -2.8308 H   0  0  0  0  0  0
    1.5598    0.8485   -2.6572 H   0  0  0  0  0  0
    0.8870    0.1228    0.0554 N   0  3  1  0  0  0
    0.2170   -0.4664    0.5635 H   0  0  0  0  0  0
  1  2  1  0  0  0
  1 17  1  0  0  0
  1 18  1  0  0  0
  1 19  1  0  0  0
  2  3  1  0  0  0
  2 20  1  0  0  0
  2 21  1  0  0  0
  3  4  1  0  0  0
  3 22  1  0  0  0
  3 23  1  0  0  0
  4  5  1  0  0  0
  4 24  1  0  0  0
  4 25  1  0  0  0
  5  6  1  0  0  0
  5 26  1  0  0  0
  5 27  1  0  0  0
  6  7  1  0  0  0
  6 28  1  0  0  0
  6 46  1  0  0  0
  7  8  1  0  0  0
  7 29  1  0  0  0
  7 30  1  0  0  0
  8 31  1  0  0  0
  8 32  1  0  0  0
  8 33  1  0  0  0
  9 10  1  0  0  0
  9 16  1  0  0  0
  9 34  1  0  0  0
  9 46  1  0  0  0
 10 11  1  0  0  0
 10 35  1  0  0  0
 10 36  1  0  0  0
 11 12  1  0  0  0
 11 37  1  0  0  0
 11 38  1  0  0  0
 12 13  1  0  0  0
 12 39  1  0  0  0
 12 40  1  0  0  0
 13 14  1  0  0  0
 13 41  1  0  0  0
 13 46  1  0  0  0
 14 15  1  0  0  0
 14 42  1  0  0  0
 14 43  1  0  0  0
 15 16  1  0  0  0
 16 44  1  0  0  0
 16 45  1  0  0  0
 46 47  1  0  0  0
M  CHG  1  46   1
M  END
> <energy>
173.275

> <chiral flag>
0

> <version>
0

> <i_ionizer_Ion_state_n>
1

> <i_ionizer_Tot_Q>
1

> <s_ionizer_Ion_centers>
46

> <s_ionizer_Ion_types>
N5

> <s_ionizer_Ion_ctrs_in>
9

> <r_ionizer_Ionization_penalty>
0.41068

> <r_ionizer_Ionization_penalty_charging>
0.41068

> <r_ionizer_Ionization_penalty_neutral>
0

$$$$
ZINC001258447077
                    3D
 Structure written by MMmdl.
 47 48  0  0  1  0            999 V2000
    3.5866   -1.0308    2.6971 C   0  0  0  0  0  0
    2.3125   -0.1996    2.7278 C   0  0  0  0  0  0
    1.0778   -1.0553    2.4405 C   0  0  0  0  0  0
   -0.2302   -0.2721    2.6055 C   0  0  0  0  0  0
   -1.0280   -0.1250    1.2999 C   0  0  0  0  0  0
   -0.4344    0.8605    0.2534 C   0  0  2  0  0  0
   -0.9930    2.2999    0.4292 C   0  0  0  0  0  0
   -0.6560    2.9654    1.7591 C   0  0  0  0  0  0
   -0.2650    1.1669   -2.2581 C   0  0  1  0  0  0
    0.3539    0.1329   -3.3147 C   0  0  0  0  0  0
    0.3946   -1.4014   -2.8243 C   0  0  0  0  0  0
   -0.8396   -1.8579   -1.9314 C   0  0  0  0  0  0
   -1.5451   -0.5645   -1.6204 C   0  0  1  0  0  0
   -2.9101    0.0110   -1.3869 C   0  0  0  0  0  0
   -2.8528    1.4139   -1.8414 O   0  0  0  0  0  0
   -1.6821    1.7966   -2.6708 C   0  0  0  0  0  0
    3.5616   -1.8136    3.4613 H   0  0  0  0  0  0
    4.4571   -0.3977    2.8949 H   0  0  0  0  0  0
    3.7250   -1.5065    1.7223 H   0  0  0  0  0  0
    2.3899    0.6064    1.9900 H   0  0  0  0  0  0
    2.2237    0.2708    3.7138 H   0  0  0  0  0  0
    1.0622   -1.8937    3.1494 H   0  0  0  0  0  0
    1.1540   -1.4939    1.4398 H   0  0  0  0  0  0
   -0.0541    0.6975    3.0790 H   0  0  0  0  0  0
   -0.8679   -0.8320    3.3042 H   0  0  0  0  0  0
   -2.0489    0.1888    1.5559 H   0  0  0  0  0  0
   -1.1251   -1.1338    0.8819 H   0  0  0  0  0  0
    0.6388    0.9403    0.4635 H   0  0  0  0  0  0
   -0.5883    2.9567   -0.3475 H   0  0  0  0  0  0
   -2.0820    2.3072    0.3158 H   0  0  0  0  0  0
    0.4201    2.9333    1.9562 H   0  0  0  0  0  0
   -1.1934    2.4951    2.5840 H   0  0  0  0  0  0
   -0.9560    4.0186    1.7343 H   0  0  0  0  0  0
    0.4780    1.9594   -2.1068 H   0  0  0  0  0  0
    1.3853    0.4270   -3.5453 H   0  0  0  0  0  0
   -0.2074    0.1810   -4.2572 H   0  0  0  0  0  0
    0.4892   -2.0583   -3.6951 H   0  0  0  0  0  0
    1.3085   -1.5364   -2.2305 H   0  0  0  0  0  0
   -1.4817   -2.5343   -2.5104 H   0  0  0  0  0  0
   -0.5019   -2.3956   -1.0389 H   0  0  0  0  0  0
   -1.7166   -0.4360   -2.7068 H   0  0  0  0  0  0
   -3.2363    0.0009   -0.3466 H   0  0  0  0  0  0
   -3.6793   -0.4931   -1.9825 H   0  0  0  0  0  0
   -1.9348    1.5664   -3.7116 H   0  0  0  0  0  0
   -1.6190    2.8858   -2.5852 H   0  0  0  0  0  0
   -0.3840    0.2308   -1.1939 N   0  3  2  0  0  0
    0.4410   -0.3802   -1.2050 H   0  0  0  0  0  0
  1  2  1  0  0  0
  1 17  1  0  0  0
  1 18  1  0  0  0
  1 19  1  0  0  0
  2  3  1  0  0  0
  2 20  1  0  0  0
  2 21  1  0  0  0
  3  4  1  0  0  0
  3 22  1  0  0  0
  3 23  1  0  0  0
  4  5  1  0  0  0
  4 24  1  0  0  0
  4 25  1  0  0  0
  5  6  1  0  0  0
  5 26  1  0  0  0
  5 27  1  0  0  0
  6  7  1  0  0  0
  6 28  1  0  0  0
  6 46  1  0  0  0
  7  8  1  0  0  0
  7 29  1  0  0  0
  7 30  1  0  0  0
  8 31  1  0  0  0
  8 32  1  0  0  0
  8 33  1  0  0  0
  9 10  1  0  0  0
  9 16  1  0  0  0
  9 34  1  0  0  0
  9 46  1  0  0  0
 10 11  1  0  0  0
 10 35  1  0  0  0
 10 36  1  0  0  0
 11 12  1  0  0  0
 11 37  1  0  0  0
 11 38  1  0  0  0
 12 13  1  0  0  0
 12 39  1  0  0  0
 12 40  1  0  0  0
 13 14  1  0  0  0
 13 41  1  0  0  0
 13 46  1  0  0  0
 14 15  1  0  0  0
 14 42  1  0  0  0
 14 43  1  0  0  0
 15 16  1  0  0  0
 16 44  1  0  0  0
 16 45  1  0  0  0
 46 47  1  0  0  0
M  CHG  1  46   1
M  END
> <energy>
167.855

> <chiral flag>
0

> <version>
0

> <i_ionizer_Ion_state_n>
1

> <i_ionizer_Tot_Q>
1

> <s_ionizer_Ion_centers>
46

> <s_ionizer_Ion_types>
N5

> <s_ionizer_Ion_ctrs_in>
9

> <r_ionizer_Ionization_penalty>
0.41068

> <r_ionizer_Ionization_penalty_charging>
0.41068

> <r_ionizer_Ionization_penalty_neutral>
0

$$$$
ZINC001258447133
                    3D
 Structure written by MMmdl.
 43 44  0  0  1  0            999 V2000
    4.2408    1.5911   -1.0042 C   0  0  0  0  0  0
    3.2720    0.5138   -0.6188 C   0  0  0  0  0  0
    2.5312   -0.1455   -1.5975 C   0  0  0  0  0  0
    1.6452   -1.1644   -1.2404 C   0  0  0  0  0  0
    1.4514   -1.5225    0.1056 C   0  0  0  0  0  0
    0.4560   -2.6273    0.4124 C   0  0  0  0  0  0
   -0.9801   -2.1267    0.6183 C   0  0  0  0  0  0
   -2.4867   -0.4751   -0.4656 C   0  0  1  0  0  0
   -3.7445   -0.9580    0.2638 C   0  0  0  0  0  0
   -1.8557    0.7705    0.2103 C   0  0  0  0  0  0
   -2.4212    2.0558   -0.3468 C   0  0  0  0  0  0
   -1.7296    2.7117   -1.5158 C   0  0  0  0  0  0
   -1.6933    3.3647   -0.1623 C   0  0  0  0  0  0
    2.1522   -0.8202    1.1071 C   0  0  0  0  0  0
    1.9318   -1.0844    2.5730 C   0  0  0  0  0  0
    3.0630    0.1876    0.7277 C   0  0  0  0  0  0
    4.7322    1.3463   -1.9535 H   0  0  0  0  0  0
    3.7172    2.5464   -1.1094 H   0  0  0  0  0  0
    5.0281    1.6975   -0.2488 H   0  0  0  0  0  0
    2.6409    0.1144   -2.6453 H   0  0  0  0  0  0
    1.0759   -1.6643   -2.0211 H   0  0  0  0  0  0
    0.7752   -3.1808    1.3036 H   0  0  0  0  0  0
    0.4833   -3.3698   -0.3975 H   0  0  0  0  0  0
   -1.6054   -2.9690    0.9418 H   0  0  0  0  0  0
   -0.9920   -1.3964    1.4329 H   0  0  0  0  0  0
   -2.7810   -0.1978   -1.4860 H   0  0  0  0  0  0
   -4.1635   -1.8469   -0.2243 H   0  0  0  0  0  0
   -4.5153   -0.1823    0.2662 H   0  0  0  0  0  0
   -3.5326   -1.2187    1.3043 H   0  0  0  0  0  0
   -2.0156    0.7410    1.2957 H   0  0  0  0  0  0
   -0.7677    0.7766    0.0542 H   0  0  0  0  0  0
   -3.5052    2.0941   -0.3051 H   0  0  0  0  0  0
   -0.8070    2.2709   -1.8858 H   0  0  0  0  0  0
   -2.3482    3.1571   -2.2874 H   0  0  0  0  0  0
   -2.2833    4.2649   -0.0195 H   0  0  0  0  0  0
   -0.7462    3.3610    0.3645 H   0  0  0  0  0  0
    2.0856   -2.1421    2.8069 H   0  0  0  0  0  0
    2.6314   -0.5141    3.1927 H   0  0  0  0  0  0
    0.9197   -0.7812    2.8589 H   0  0  0  0  0  0
    3.6149    0.7261    1.4956 H   0  0  0  0  0  0
   -1.5160   -1.5925   -0.6648 N   0  3  0  0  0  0
   -0.7311   -1.2485   -1.2303 H   0  0  0  0  0  0
   -1.9901   -2.3538   -1.1646 H   0  0  0  0  0  0
  1  2  1  0  0  0
  1 17  1  0  0  0
  1 18  1  0  0  0
  1 19  1  0  0  0
  2  3  2  0  0  0
  2 16  1  0  0  0
  3  4  1  0  0  0
  3 20  1  0  0  0
  4  5  2  0  0  0
  4 21  1  0  0  0
  5  6  1  0  0  0
  5 14  1  0  0  0
  6  7  1  0  0  0
  6 22  1  0  0  0
  6 23  1  0  0  0
  7 24  1  0  0  0
  7 25  1  0  0  0
  7 41  1  0  0  0
  8  9  1  0  0  0
  8 10  1  0  0  0
  8 26  1  0  0  0
  8 41  1  0  0  0
  9 27  1  0  0  0
  9 28  1  0  0  0
  9 29  1  0  0  0
 10 11  1  0  0  0
 10 30  1  0  0  0
 10 31  1  0  0  0
 11 12  1  0  0  0
 11 13  1  0  0  0
 11 32  1  0  0  0
 12 13  1  0  0  0
 12 33  1  0  0  0
 12 34  1  0  0  0
 13 35  1  0  0  0
 13 36  1  0  0  0
 14 15  1  0  0  0
 14 16  2  0  0  0
 15 37  1  0  0  0
 15 38  1  0  0  0
 15 39  1  0  0  0
 16 40  1  0  0  0
 41 42  1  0  0  0
 41 43  1  0  0  0
M  CHG  1  41   1
M  END
> <energy>
69.8998

> <chiral flag>
0

> <version>
0

> <i_ionizer_Ion_state_n>
1

> <i_ionizer_Tot_Q>
1

> <s_ionizer_Ion_centers>
41

> <s_ionizer_Ion_types>
N5

> <s_ionizer_Ion_ctrs_in>
8

> <r_ionizer_Ionization_penalty>
0.000148807

> <r_ionizer_Ionization_penalty_charging>
0.000148807

> <r_ionizer_Ionization_penalty_neutral>
0

$$$$
ZINC001258447134
                    3D
 Structure written by MMmdl.
 43 44  0  0  1  0            999 V2000
    4.1052    1.1539   -2.1450 C   0  0  0  0  0  0
    3.2725    0.6535   -1.0033 C   0  0  0  0  0  0
    3.1803    1.3737    0.1871 C   0  0  0  0  0  0
    2.4094    0.8872    1.2426 C   0  0  0  0  0  0
    1.7116   -0.3309    1.1389 C   0  0  0  0  0  0
    0.8820   -0.7786    2.3268 C   0  0  0  0  0  0
   -0.4062    0.0412    2.5133 C   0  0  0  0  0  0
   -2.0821    0.7137    0.8439 C   0  0  2  0  0  0
   -2.8776    1.6475    1.7640 C   0  0  0  0  0  0
   -3.0211    0.1538   -0.2508 C   0  0  0  0  0  0
   -2.2987   -0.6848   -1.2681 C   0  0  0  0  0  0
   -1.5169   -0.0369   -2.3805 C   0  0  0  0  0  0
   -2.7978   -0.7630   -2.6884 C   0  0  0  0  0  0
    1.8081   -1.0692   -0.0554 C   0  0  0  0  0  0
    1.1411   -2.4056   -0.2338 C   0  0  0  0  0  0
    2.5970   -0.5695   -1.1089 C   0  0  0  0  0  0
    3.5278    1.1287   -3.0752 H   0  0  0  0  0  0
    5.0001    0.5336   -2.2586 H   0  0  0  0  0  0
    4.4236    2.1894   -1.9823 H   0  0  0  0  0  0
    3.7064    2.3177    0.3048 H   0  0  0  0  0  0
    2.3535    1.4720    2.1590 H   0  0  0  0  0  0
    1.5022   -0.6625    3.2263 H   0  0  0  0  0  0
    0.6555   -1.8500    2.2852 H   0  0  0  0  0  0
   -0.7672   -0.1051    3.5384 H   0  0  0  0  0  0
   -0.1832    1.1102    2.4208 H   0  0  0  0  0  0
   -1.2911    1.2889    0.3455 H   0  0  0  0  0  0
   -2.2326    2.1421    2.4978 H   0  0  0  0  0  0
   -3.6551    1.1039    2.3124 H   0  0  0  0  0  0
   -3.3683    2.4366    1.1832 H   0  0  0  0  0  0
   -3.8157   -0.4514    0.2044 H   0  0  0  0  0  0
   -3.5194    0.9922   -0.7541 H   0  0  0  0  0  0
   -1.8996   -1.5939   -0.8341 H   0  0  0  0  0  0
   -1.5116    1.0447   -2.4505 H   0  0  0  0  0  0
   -0.5792   -0.5004   -2.6660 H   0  0  0  0  0  0
   -3.6612   -0.1707   -2.9698 H   0  0  0  0  0  0
   -2.7309   -1.7193   -3.1954 H   0  0  0  0  0  0
    0.1097   -2.3892    0.1280 H   0  0  0  0  0  0
    1.7009   -3.1759    0.3062 H   0  0  0  0  0  0
    1.0992   -2.6938   -1.2905 H   0  0  0  0  0  0
    2.6827   -1.1420   -2.0309 H   0  0  0  0  0  0
   -1.4767   -0.4190    1.5961 N   0  3  0  0  0  0
   -1.0768   -1.0870    0.9267 H   0  0  0  0  0  0
   -2.2094   -0.8826    2.1460 H   0  0  0  0  0  0
  1  2  1  0  0  0
  1 17  1  0  0  0
  1 18  1  0  0  0
  1 19  1  0  0  0
  2  3  2  0  0  0
  2 16  1  0  0  0
  3  4  1  0  0  0
  3 20  1  0  0  0
  4  5  2  0  0  0
  4 21  1  0  0  0
  5  6  1  0  0  0
  5 14  1  0  0  0
  6  7  1  0  0  0
  6 22  1  0  0  0
  6 23  1  0  0  0
  7 24  1  0  0  0
  7 25  1  0  0  0
  7 41  1  0  0  0
  8  9  1  0  0  0
  8 10  1  0  0  0
  8 26  1  0  0  0
  8 41  1  0  0  0
  9 27  1  0  0  0
  9 28  1  0  0  0
  9 29  1  0  0  0
 10 11  1  0  0  0
 10 30  1  0  0  0
 10 31  1  0  0  0
 11 12  1  0  0  0
 11 13  1  0  0  0
 11 32  1  0  0  0
 12 13  1  0  0  0
 12 33  1  0  0  0
 12 34  1  0  0  0
 13 35  1  0  0  0
 13 36  1  0  0  0
 14 15  1  0  0  0
 14 16  2  0  0  0
 15 37  1  0  0  0
 15 38  1  0  0  0
 15 39  1  0  0  0
 16 40  1  0  0  0
 41 42  1  0  0  0
 41 43  1  0  0  0
M  CHG  1  41   1
M  END
> <energy>
69.397

> <chiral flag>
0

> <version>
0

> <i_ionizer_Ion_state_n>
1

> <i_ionizer_Tot_Q>
1

> <s_ionizer_Ion_centers>
41

> <s_ionizer_Ion_types>
N5

> <s_ionizer_Ion_ctrs_in>
8

> <r_ionizer_Ionization_penalty>
0.000148807

> <r_ionizer_Ionization_penalty_charging>
0.000148807

> <r_ionizer_Ionization_penalty_neutral>
0

$$$$
ZINC001258447145
                    3D
 Structure written by MMmdl.
 37 38  0  0  1  0            999 V2000
   -4.3930   -1.2696   -0.2501 C   0  0  0  0  0  0
   -3.3855   -0.1915    0.0349 C   0  0  0  0  0  0
   -3.4963    1.0814   -0.5375 C   0  0  0  0  0  0
   -2.5280    2.0479   -0.2793 C   0  0  0  0  0  0
   -1.4237    1.7333    0.5086 C   0  0  0  0  0  0
   -0.5017    2.6799    0.7242 F   0  0  0  0  0  0
   -1.2532    0.4536    1.0524 C   0  0  0  0  0  0
   -0.0264    0.1128    1.8509 C   0  0  0  0  0  0
    1.6960   -1.1328    0.5234 C   0  0  1  0  0  0
    1.9045   -2.5838    0.0534 C   0  0  0  0  0  0
    1.5433   -0.2299   -0.7247 C   0  0  0  0  0  0
    2.2721    1.0838   -0.5858 C   0  0  0  0  0  0
    3.7503    1.1901   -0.8670 C   0  0  0  0  0  0
    2.7593    1.7919   -1.8221 C   0  0  0  0  0  0
   -2.2724   -0.4767    0.8353 C   0  0  0  0  0  0
   -2.2040   -1.6909    1.4044 F   0  0  0  0  0  0
   -5.3264   -0.8460   -0.6331 H   0  0  0  0  0  0
   -3.9980   -1.9671   -0.9964 H   0  0  0  0  0  0
   -4.6322   -1.8255    0.6614 H   0  0  0  0  0  0
   -4.3392    1.3164   -1.1809 H   0  0  0  0  0  0
   -2.6145    3.0404   -0.7117 H   0  0  0  0  0  0
   -0.3401    0.0562    2.9009 H   0  0  0  0  0  0
    0.7219    0.9090    1.8254 H   0  0  0  0  0  0
    2.5817   -0.8292    1.0992 H   0  0  0  0  0  0
    2.8902   -2.7049   -0.4163 H   0  0  0  0  0  0
    1.8451   -3.2946    0.8869 H   0  0  0  0  0  0
    1.1467   -2.8769   -0.6846 H   0  0  0  0  0  0
    0.4902   -0.0408   -0.9564 H   0  0  0  0  0  0
    1.9449   -0.7459   -1.6066 H   0  0  0  0  0  0
    1.8709    1.7137    0.1972 H   0  0  0  0  0  0
    4.3401    1.8630   -0.2517 H   0  0  0  0  0  0
    4.2866    0.3005   -1.1774 H   0  0  0  0  0  0
    2.6111    1.3010   -2.7767 H   0  0  0  0  0  0
    2.6716    2.8715   -1.8596 H   0  0  0  0  0  0
    0.5410   -1.2165    1.4797 N   0  3  0  0  0  0
    0.8621   -1.6827    2.3363 H   0  0  0  0  0  0
   -0.2015   -1.7756    1.0435 H   0  0  0  0  0  0
  1  2  1  0  0  0
  1 17  1  0  0  0
  1 18  1  0  0  0
  1 19  1  0  0  0
  2  3  2  0  0  0
  2 15  1  0  0  0
  3  4  1  0  0  0
  3 20  1  0  0  0
  4  5  2  0  0  0
  4 21  1  0  0  0
  5  6  1  0  0  0
  5  7  1  0  0  0
  7  8  1  0  0  0
  7 15  2  0  0  0
  8 22  1  0  0  0
  8 23  1  0  0  0
  8 35  1  0  0  0
  9 10  1  0  0  0
  9 11  1  0  0  0
  9 24  1  0  0  0
  9 35  1  0  0  0
 10 25  1  0  0  0
 10 26  1  0  0  0
 10 27  1  0  0  0
 11 12  1  0  0  0
 11 28  1  0  0  0
 11 29  1  0  0  0
 12 13  1  0  0  0
 12 14  1  0  0  0
 12 30  1  0  0  0
 13 14  1  0  0  0
 13 31  1  0  0  0
 13 32  1  0  0  0
 14 33  1  0  0  0
 14 34  1  0  0  0
 15 16  1  0  0  0
 35 36  1  0  0  0
 35 37  1  0  0  0
M  CHG  1  35   1
M  END
> <energy>
41.6128

> <chiral flag>
0

> <version>
0

> <i_ionizer_Ion_state_n>
1

> <i_ionizer_Tot_Q>
1

> <s_ionizer_Ion_centers>
35

> <s_ionizer_Ion_types>
N5

> <s_ionizer_Ion_ctrs_in>
9

> <r_ionizer_Ionization_penalty>
0.000148807

> <r_ionizer_Ionization_penalty_charging>
0.000148807

> <r_ionizer_Ionization_penalty_neutral>
0

$$$$
ZINC001258447146
                    3D
 Structure written by MMmdl.
 37 38  0  0  1  0            999 V2000
   -3.7434    0.9166    2.2079 C   0  0  0  0  0  0
   -3.0137    0.3826    1.0138 C   0  0  0  0  0  0
   -3.3783    0.7559   -0.2841 C   0  0  0  0  0  0
   -2.6994    0.2212   -1.3787 C   0  0  0  0  0  0
   -1.6583   -0.6832   -1.1766 C   0  0  0  0  0  0
   -1.0339   -1.1860   -2.2521 F   0  0  0  0  0  0
   -1.2710   -1.0744    0.1034 C   0  0  0  0  0  0
   -0.1224   -2.0145    0.3249 C   0  0  0  0  0  0
    1.9310   -1.0942   -0.6444 C   0  0  2  0  0  0
    2.9599   -2.2220   -0.7621 C   0  0  0  0  0  0
    2.6481    0.2728   -0.5900 C   0  0  0  0  0  0
    1.7151    1.4213   -0.8626 C   0  0  0  0  0  0
    0.9762    2.1009    0.2597 C   0  0  0  0  0  0
    2.0961    2.8174   -0.4416 C   0  0  0  0  0  0
   -1.9667   -0.5327    1.1878 C   0  0  0  0  0  0
   -1.6367   -0.9043    2.4344 F   0  0  0  0  0  0
   -4.3663    1.7763    1.9423 H   0  0  0  0  0  0
   -4.3890    0.1411    2.6308 H   0  0  0  0  0  0
   -3.0331    1.2491    2.9712 H   0  0  0  0  0  0
   -4.1904    1.4598   -0.4508 H   0  0  0  0  0  0
   -2.9730    0.5029   -2.3904 H   0  0  0  0  0  0
   -0.3486   -2.6291    1.2056 H   0  0  0  0  0  0
   -0.0316   -2.7345   -0.4987 H   0  0  0  0  0  0
    1.2999   -1.1092   -1.5410 H   0  0  0  0  0  0
    3.5337   -2.1250   -1.6893 H   0  0  0  0  0  0
    2.4717   -3.2023   -0.7761 H   0  0  0  0  0  0
    3.6686   -2.2056    0.0737 H   0  0  0  0  0  0
    3.1609    0.3990    0.3733 H   0  0  0  0  0  0
    3.4282    0.3007   -1.3619 H   0  0  0  0  0  0
    1.2029    1.3139   -1.8121 H   0  0  0  0  0  0
    1.1424    1.7504    1.2718 H   0  0  0  0  0  0
   -0.0403    2.4237    0.0692 H   0  0  0  0  0  0
    3.0222    2.9619    0.1030 H   0  0  0  0  0  0
    1.8393    3.6350   -1.1051 H   0  0  0  0  0  0
    1.1341   -1.2838    0.5962 N   0  3  0  0  0  0
    0.9066   -0.3637    0.9909 H   0  0  0  0  0  0
    1.6916   -1.8182    1.2728 H   0  0  0  0  0  0
  1  2  1  0  0  0
  1 17  1  0  0  0
  1 18  1  0  0  0
  1 19  1  0  0  0
  2  3  2  0  0  0
  2 15  1  0  0  0
  3  4  1  0  0  0
  3 20  1  0  0  0
  4  5  2  0  0  0
  4 21  1  0  0  0
  5  6  1  0  0  0
  5  7  1  0  0  0
  7  8  1  0  0  0
  7 15  2  0  0  0
  8 22  1  0  0  0
  8 23  1  0  0  0
  8 35  1  0  0  0
  9 10  1  0  0  0
  9 11  1  0  0  0
  9 24  1  0  0  0
  9 35  1  0  0  0
 10 25  1  0  0  0
 10 26  1  0  0  0
 10 27  1  0  0  0
 11 12  1  0  0  0
 11 28  1  0  0  0
 11 29  1  0  0  0
 12 13  1  0  0  0
 12 14  1  0  0  0
 12 30  1  0  0  0
 13 14  1  0  0  0
 13 31  1  0  0  0
 13 32  1  0  0  0
 14 33  1  0  0  0
 14 34  1  0  0  0
 15 16  1  0  0  0
 35 36  1  0  0  0
 35 37  1  0  0  0
M  CHG  1  35   1
M  END
> <energy>
35.9577

> <chiral flag>
0

> <version>
0

> <i_ionizer_Ion_state_n>
1

> <i_ionizer_Tot_Q>
1

> <s_ionizer_Ion_centers>
35

> <s_ionizer_Ion_types>
N5

> <s_ionizer_Ion_ctrs_in>
9

> <r_ionizer_Ionization_penalty>
0.000148807

> <r_ionizer_Ionization_penalty_charging>
0.000148807

> <r_ionizer_Ionization_penalty_neutral>
0

$$$$
ZINC001258447224
                    3D
 Structure written by MMmdl.
 43 44  0  0  1  0            999 V2000
    4.7626    1.1667   -1.5897 C   0  0  0  0  0  0
    3.7032    0.4003   -0.8465 C   0  0  0  0  0  0
    3.5001   -0.9543   -1.1400 C   0  0  0  0  0  0
    2.5299   -1.6962   -0.4624 C   0  0  0  0  0  0
    1.7303   -1.1054    0.5259 C   0  0  0  0  0  0
    0.7394   -1.9720    1.2764 C   0  0  0  0  0  0
   -0.5375   -1.3118    1.8365 C   0  0  0  0  0  0
   -2.7394   -0.4059    1.1529 C   0  0  1  0  0  0
   -2.8419    0.4692    2.4050 C   0  0  0  0  0  0
   -3.4552    0.3059   -0.0214 C   0  0  0  0  0  0
   -3.4437   -0.4965   -1.2939 C   0  0  0  0  0  0
   -2.4959   -0.1372   -2.4092 C   0  0  0  0  0  0
   -3.9699    0.1053   -2.5722 C   0  0  0  0  0  0
    1.9405    0.2458    0.8266 C   0  0  0  0  0  0
    2.9018    1.0105    0.1388 C   0  0  0  0  0  0
    3.0724    2.4623    0.4941 C   0  0  0  0  0  0
    5.3470    0.5117   -2.2450 H   0  0  0  0  0  0
    5.4623    1.6297   -0.8863 H   0  0  0  0  0  0
    4.3046    1.9412   -2.2128 H   0  0  0  0  0  0
    4.1019   -1.4478   -1.8997 H   0  0  0  0  0  0
    2.4059   -2.7484   -0.7104 H   0  0  0  0  0  0
    0.4284   -2.7989    0.6233 H   0  0  0  0  0  0
    1.2812   -2.4282    2.1153 H   0  0  0  0  0  0
   -0.2715   -0.5490    2.5764 H   0  0  0  0  0  0
   -1.1031   -2.0892    2.3671 H   0  0  0  0  0  0
   -3.2705   -1.3471    1.3463 H   0  0  0  0  0  0
   -3.8808    0.7691    2.5822 H   0  0  0  0  0  0
   -2.2432    1.3813    2.3081 H   0  0  0  0  0  0
   -2.5091   -0.0701    3.2973 H   0  0  0  0  0  0
   -4.5037    0.4767    0.2568 H   0  0  0  0  0  0
   -3.0116    1.2970   -0.1896 H   0  0  0  0  0  0
   -3.6479   -1.5481   -1.1221 H   0  0  0  0  0  0
   -2.0402   -0.9524   -2.9592 H   0  0  0  0  0  0
   -1.8502    0.7234   -2.2833 H   0  0  0  0  0  0
   -4.3185    1.1316   -2.5562 H   0  0  0  0  0  0
   -4.5220   -0.5435   -3.2436 H   0  0  0  0  0  0
    1.3552    0.7242    1.6097 H   0  0  0  0  0  0
    4.0483    2.6255    0.9611 H   0  0  0  0  0  0
    2.9848    3.0874   -0.3999 H   0  0  0  0  0  0
    2.3025    2.7967    1.1977 H   0  0  0  0  0  0
   -1.3436   -0.7262    0.7375 N   0  3  0  0  0  0
   -0.8886    0.1384    0.4216 H   0  0  0  0  0  0
   -1.3780   -1.3980   -0.0382 H   0  0  0  0  0  0
  1  2  1  0  0  0
  1 17  1  0  0  0
  1 18  1  0  0  0
  1 19  1  0  0  0
  2  3  2  0  0  0
  2 15  1  0  0  0
  3  4  1  0  0  0
  3 20  1  0  0  0
  4  5  2  0  0  0
  4 21  1  0  0  0
  5  6  1  0  0  0
  5 14  1  0  0  0
  6  7  1  0  0  0
  6 22  1  0  0  0
  6 23  1  0  0  0
  7 24  1  0  0  0
  7 25  1  0  0  0
  7 41  1  0  0  0
  8  9  1  0  0  0
  8 10  1  0  0  0
  8 26  1  0  0  0
  8 41  1  0  0  0
  9 27  1  0  0  0
  9 28  1  0  0  0
  9 29  1  0  0  0
 10 11  1  0  0  0
 10 30  1  0  0  0
 10 31  1  0  0  0
 11 12  1  0  0  0
 11 13  1  0  0  0
 11 32  1  0  0  0
 12 13  1  0  0  0
 12 33  1  0  0  0
 12 34  1  0  0  0
 13 35  1  0  0  0
 13 36  1  0  0  0
 14 15  2  0  0  0
 14 37  1  0  0  0
 15 16  1  0  0  0
 16 38  1  0  0  0
 16 39  1  0  0  0
 16 40  1  0  0  0
 41 42  1  0  0  0
 41 43  1  0  0  0
M  CHG  1  41   1
M  END
> <energy>
67.6809

> <chiral flag>
0

> <version>
0

> <i_ionizer_Ion_state_n>
1

> <i_ionizer_Tot_Q>
1

> <s_ionizer_Ion_centers>
41

> <s_ionizer_Ion_types>
N5

> <s_ionizer_Ion_ctrs_in>
8

> <r_ionizer_Ionization_penalty>
0.000148807

> <r_ionizer_Ionization_penalty_charging>
0.000148807

> <r_ionizer_Ionization_penalty_neutral>
0

$$$$
ZINC001258447226
                    3D
 Structure written by MMmdl.
 43 44  0  0  1  0            999 V2000
    5.0109    1.3578   -0.9149 C   0  0  0  0  0  0
    3.9358    0.4109   -0.4639 C   0  0  0  0  0  0
    3.6248   -0.7043   -1.2561 C   0  0  0  0  0  0
    2.6188   -1.5996   -0.8804 C   0  0  0  0  0  0
    1.9026   -1.4010    0.3034 C   0  0  0  0  0  0
    0.7732   -2.3271    0.6911 C   0  0  0  0  0  0
   -0.4992   -2.1180   -0.1483 C   0  0  0  0  0  0
   -2.2290   -0.4575   -0.7515 C   0  0  2  0  0  0
   -1.7893   -0.2681   -2.2078 C   0  0  0  0  0  0
   -2.8618    0.8642   -0.2399 C   0  0  0  0  0  0
   -3.8095    0.6408    0.9077 C   0  0  0  0  0  0
   -4.7771    1.7256    1.3077 C   0  0  0  0  0  0
   -5.2837    0.4705    0.6545 C   0  0  0  0  0  0
    2.2246   -0.2982    1.1053 C   0  0  0  0  0  0
    3.2409    0.6048    0.7457 C   0  0  0  0  0  0
    3.4972    1.7927    1.6341 C   0  0  0  0  0  0
    4.6230    2.3798   -0.9851 H   0  0  0  0  0  0
    5.8518    1.3334   -0.2142 H   0  0  0  0  0  0
    5.3958    1.0862   -1.9037 H   0  0  0  0  0  0
    4.1510   -0.8778   -2.1921 H   0  0  0  0  0  0
    2.3934   -2.4436   -1.5302 H   0  0  0  0  0  0
    0.5360   -2.2046    1.7578 H   0  0  0  0  0  0
    1.1135   -3.3645    0.5731 H   0  0  0  0  0  0
   -1.2279   -2.8942    0.1138 H   0  0  0  0  0  0
   -0.2427   -2.2495   -1.2029 H   0  0  0  0  0  0
   -2.9779   -1.2573   -0.7028 H   0  0  0  0  0  0
   -1.0070    0.4965   -2.2898 H   0  0  0  0  0  0
   -1.4103   -1.1971   -2.6460 H   0  0  0  0  0  0
   -2.6384    0.0481   -2.8264 H   0  0  0  0  0  0
   -2.0748    1.5589    0.0829 H   0  0  0  0  0  0
   -3.3955    1.3650   -1.0574 H   0  0  0  0  0  0
   -3.3609    0.0753    1.7139 H   0  0  0  0  0  0
   -4.9615    1.8647    2.3690 H   0  0  0  0  0  0
   -4.8045    2.6424    0.7311 H   0  0  0  0  0  0
   -5.8217   -0.2432    1.2673 H   0  0  0  0  0  0
   -5.6515    0.5418   -0.3642 H   0  0  0  0  0  0
    1.6573   -0.1251    2.0199 H   0  0  0  0  0  0
    3.1619    1.5953    2.6587 H   0  0  0  0  0  0
    4.5647    2.0241    1.6948 H   0  0  0  0  0  0
    2.9599    2.6671    1.2555 H   0  0  0  0  0  0
   -1.0683   -0.7730    0.1292 N   0  3  0  0  0  0
   -1.3777   -0.7409    1.1077 H   0  0  0  0  0  0
   -0.3376   -0.0677   -0.0221 H   0  0  0  0  0  0
  1  2  1  0  0  0
  1 17  1  0  0  0
  1 18  1  0  0  0
  1 19  1  0  0  0
  2  3  2  0  0  0
  2 15  1  0  0  0
  3  4  1  0  0  0
  3 20  1  0  0  0
  4  5  2  0  0  0
  4 21  1  0  0  0
  5  6  1  0  0  0
  5 14  1  0  0  0
  6  7  1  0  0  0
  6 22  1  0  0  0
  6 23  1  0  0  0
  7 24  1  0  0  0
  7 25  1  0  0  0
  7 41  1  0  0  0
  8  9  1  0  0  0
  8 10  1  0  0  0
  8 26  1  0  0  0
  8 41  1  0  0  0
  9 27  1  0  0  0
  9 28  1  0  0  0
  9 29  1  0  0  0
 10 11  1  0  0  0
 10 30  1  0  0  0
 10 31  1  0  0  0
 11 12  1  0  0  0
 11 13  1  0  0  0
 11 32  1  0  0  0
 12 13  1  0  0  0
 12 33  1  0  0  0
 12 34  1  0  0  0
 13 35  1  0  0  0
 13 36  1  0  0  0
 14 15  2  0  0  0
 14 37  1  0  0  0
 15 16  1  0  0  0
 16 38  1  0  0  0
 16 39  1  0  0  0
 16 40  1  0  0  0
 41 42  1  0  0  0
 41 43  1  0  0  0
M  CHG  1  41   1
M  END
> <energy>
67.762

> <chiral flag>
0

> <version>
0

> <i_ionizer_Ion_state_n>
1

> <i_ionizer_Tot_Q>
1

> <s_ionizer_Ion_centers>
41

> <s_ionizer_Ion_types>
N5

> <s_ionizer_Ion_ctrs_in>
8

> <r_ionizer_Ionization_penalty>
0.000148807

> <r_ionizer_Ionization_penalty_charging>
0.000148807

> <r_ionizer_Ionization_penalty_neutral>
0

$$$$
ZINC001258447319
                    3D
 Structure written by MMmdl.
 43 44  0  0  1  0            999 V2000
   -1.7934    0.0417    1.9490 C   0  0  0  0  0  0
   -1.3133   -0.3434    0.5393 C   0  0  2  0  0  0
   -2.5001   -0.9120   -0.2727 C   0  0  0  0  0  0
   -3.4290    0.1677   -0.7597 C   0  0  0  0  0  0
   -3.0479    1.0166   -1.9455 C   0  0  0  0  0  0
   -4.1550    0.0075   -2.0706 C   0  0  0  0  0  0
    0.8621   -1.3876   -0.2663 C   0  0  0  0  0  0
    1.9659   -2.2616    0.3737 C   0  0  0  0  0  0
    0.3806   -2.1422   -1.5258 C   0  0  0  0  0  0
    1.4762   -0.0299   -0.7487 C   0  0  0  0  0  0
    2.1714    0.9297    0.1996 C   0  0  0  0  0  0
    1.9995    0.9274    1.5889 C   0  0  0  0  0  0
    2.6499    1.8689    2.3947 C   0  0  0  0  0  0
    3.4717    2.8234    1.8129 C   0  0  0  0  0  0
    4.0908    3.7258    2.5859 F   0  0  0  0  0  0
    3.6544    2.8584    0.4387 C   0  0  0  0  0  0
    3.0031    1.9190   -0.3626 C   0  0  0  0  0  0
   -0.9673    0.4197    2.5617 H   0  0  0  0  0  0
   -2.5487    0.8331    1.9081 H   0  0  0  0  0  0
   -2.2304   -0.8170    2.4728 H   0  0  0  0  0  0
   -0.9485    0.5771    0.0757 H   0  0  0  0  0  0
   -2.1434   -1.4750   -1.1375 H   0  0  0  0  0  0
   -3.0724   -1.6256    0.3336 H   0  0  0  0  0  0
   -3.9743    0.6418    0.0484 H   0  0  0  0  0  0
   -3.3115    2.0679   -1.9220 H   0  0  0  0  0  0
   -2.1155    0.8071   -2.4572 H   0  0  0  0  0  0
   -5.1720    0.3773   -2.1403 H   0  0  0  0  0  0
   -3.9671   -0.8760   -2.6717 H   0  0  0  0  0  0
    2.3191   -1.8564    1.3276 H   0  0  0  0  0  0
    2.8365   -2.3456   -0.2881 H   0  0  0  0  0  0
    1.6046   -3.2791    0.5696 H   0  0  0  0  0  0
    1.2279   -2.4236   -2.1635 H   0  0  0  0  0  0
   -0.1466   -3.0683   -1.2691 H   0  0  0  0  0  0
   -0.2826   -1.5261   -2.1415 H   0  0  0  0  0  0
    0.7052    0.5468   -1.2777 H   0  0  0  0  0  0
    2.2180   -0.2824   -1.5217 H   0  0  0  0  0  0
    1.3585    0.1982    2.0739 H   0  0  0  0  0  0
    2.5109    1.8636    3.4707 H   0  0  0  0  0  0
    4.2946    3.6169   -0.0005 H   0  0  0  0  0  0
    3.1451    1.9626   -1.4406 H   0  0  0  0  0  0
   -0.2235   -1.3526    0.7899 N   0  3  0  0  0  0
    0.2147   -1.1325    1.6919 H   0  0  0  0  0  0
   -0.6544   -2.2834    0.8368 H   0  0  0  0  0  0
  1  2  1  0  0  0
  1 18  1  0  0  0
  1 19  1  0  0  0
  1 20  1  0  0  0
  2  3  1  0  0  0
  2 21  1  0  0  0
  2 41  1  0  0  0
  3  4  1  0  0  0
  3 22  1  0  0  0
  3 23  1  0  0  0
  4  5  1  0  0  0
  4  6  1  0  0  0
  4 24  1  0  0  0
  5  6  1  0  0  0
  5 25  1  0  0  0
  5 26  1  0  0  0
  6 27  1  0  0  0
  6 28  1  0  0  0
  7  8  1  0  0  0
  7  9  1  0  0  0
  7 10  1  0  0  0
  7 41  1  0  0  0
  8 29  1  0  0  0
  8 30  1  0  0  0
  8 31  1  0  0  0
  9 32  1  0  0  0
  9 33  1  0  0  0
  9 34  1  0  0  0
 10 11  1  0  0  0
 10 35  1  0  0  0
 10 36  1  0  0  0
 11 12  2  0  0  0
 11 17  1  0  0  0
 12 13  1  0  0  0
 12 37  1  0  0  0
 13 14  2  0  0  0
 13 38  1  0  0  0
 14 15  1  0  0  0
 14 16  1  0  0  0
 16 17  2  0  0  0
 16 39  1  0  0  0
 17 40  1  0  0  0
 41 42  1  0  0  0
 41 43  1  0  0  0
M  CHG  1  41   1
M  END
> <energy>
70.1878

> <chiral flag>
0

> <version>
0

> <i_ionizer_Ion_state_n>
1

> <i_ionizer_Tot_Q>
1

> <s_ionizer_Ion_centers>
41

> <s_ionizer_Ion_types>
N5

> <s_ionizer_Ion_ctrs_in>
7

> <r_ionizer_Ionization_penalty>
0.000148807

> <r_ionizer_Ionization_penalty_charging>
0.000148807

> <r_ionizer_Ionization_penalty_neutral>
0

$$$$
ZINC001258447320
                    3D
 Structure written by MMmdl.
 43 44  0  0  1  0            999 V2000
   -1.1388   -1.5383    1.2736 C   0  0  0  0  0  0
   -1.0857   -0.3809    0.2648 C   0  0  1  0  0  0
   -2.5149    0.0351   -0.1488 C   0  0  0  0  0  0
   -3.1062   -0.9033   -1.1715 C   0  0  0  0  0  0
   -2.9175   -0.6508   -2.6447 C   0  0  0  0  0  0
   -4.2663   -0.4452   -2.0139 C   0  0  0  0  0  0
    0.4549    1.6181    0.0482 C   0  0  0  0  0  0
   -0.0175    3.0567    0.3654 C   0  0  0  0  0  0
    0.3234    1.4531   -1.4827 C   0  0  0  0  0  0
    1.9660    1.5290    0.4760 C   0  0  0  0  0  0
    2.5345    0.1555    0.7869 C   0  0  0  0  0  0
    2.7125   -0.8125   -0.2101 C   0  0  0  0  0  0
    3.2379   -2.0690    0.1031 C   0  0  0  0  0  0
    3.6085   -2.3539    1.4130 C   0  0  0  0  0  0
    4.1251   -3.5532    1.7079 F   0  0  0  0  0  0
    3.4585   -1.4073    2.4156 C   0  0  0  0  0  0
    2.9232   -0.1563    2.1031 C   0  0  0  0  0  0
   -1.6323   -2.4147    0.8405 H   0  0  0  0  0  0
   -1.6856   -1.2567    2.1800 H   0  0  0  0  0  0
   -0.1276   -1.8496    1.5682 H   0  0  0  0  0  0
   -0.5292   -0.7622   -0.5952 H   0  0  0  0  0  0
   -3.1720    0.0621    0.7323 H   0  0  0  0  0  0
   -2.5146    1.0536   -0.5601 H   0  0  0  0  0  0
   -3.1347   -1.9318   -0.8324 H   0  0  0  0  0  0
   -2.7876   -1.5069   -3.2965 H   0  0  0  0  0  0
   -2.3699    0.2301   -2.9596 H   0  0  0  0  0  0
   -4.6204    0.5719   -1.8871 H   0  0  0  0  0  0
   -5.0498   -1.1629   -2.2335 H   0  0  0  0  0  0
   -1.0487    3.2192    0.0305 H   0  0  0  0  0  0
    0.6169    3.7945   -0.1384 H   0  0  0  0  0  0
    0.0197    3.2711    1.4414 H   0  0  0  0  0  0
    0.6340    0.4690   -1.8413 H   0  0  0  0  0  0
    0.9452    2.1893   -2.0054 H   0  0  0  0  0  0
   -0.7039    1.6215   -1.8191 H   0  0  0  0  0  0
    2.1132    2.1516    1.3708 H   0  0  0  0  0  0
    2.6009    1.9927   -0.2905 H   0  0  0  0  0  0
    2.4513   -0.6025   -1.2428 H   0  0  0  0  0  0
    3.3687   -2.8252   -0.6647 H   0  0  0  0  0  0
    3.7626   -1.6456    3.4321 H   0  0  0  0  0  0
    2.8134    0.5786    2.8974 H   0  0  0  0  0  0
   -0.4040    0.7639    0.9582 N   0  3  0  0  0  0
   -1.1257    1.3629    1.3759 H   0  0  0  0  0  0
    0.1941    0.3809    1.6997 H   0  0  0  0  0  0
  1  2  1  0  0  0
  1 18  1  0  0  0
  1 19  1  0  0  0
  1 20  1  0  0  0
  2  3  1  0  0  0
  2 21  1  0  0  0
  2 41  1  0  0  0
  3  4  1  0  0  0
  3 22  1  0  0  0
  3 23  1  0  0  0
  4  5  1  0  0  0
  4  6  1  0  0  0
  4 24  1  0  0  0
  5  6  1  0  0  0
  5 25  1  0  0  0
  5 26  1  0  0  0
  6 27  1  0  0  0
  6 28  1  0  0  0
  7  8  1  0  0  0
  7  9  1  0  0  0
  7 10  1  0  0  0
  7 41  1  0  0  0
  8 29  1  0  0  0
  8 30  1  0  0  0
  8 31  1  0  0  0
  9 32  1  0  0  0
  9 33  1  0  0  0
  9 34  1  0  0  0
 10 11  1  0  0  0
 10 35  1  0  0  0
 10 36  1  0  0  0
 11 12  2  0  0  0
 11 17  1  0  0  0
 12 13  1  0  0  0
 12 37  1  0  0  0
 13 14  2  0  0  0
 13 38  1  0  0  0
 14 15  1  0  0  0
 14 16  1  0  0  0
 16 17  2  0  0  0
 16 39  1  0  0  0
 17 40  1  0  0  0
 41 42  1  0  0  0
 41 43  1  0  0  0
M  CHG  1  41   1
M  END
> <energy>
71.6338

> <chiral flag>
0

> <version>
0

> <i_ionizer_Ion_state_n>
1

> <i_ionizer_Tot_Q>
1

> <s_ionizer_Ion_centers>
41

> <s_ionizer_Ion_types>
N5

> <s_ionizer_Ion_ctrs_in>
7

> <r_ionizer_Ionization_penalty>
0.000148807

> <r_ionizer_Ionization_penalty_charging>
0.000148807

> <r_ionizer_Ionization_penalty_neutral>
0

$$$$
ZINC001258447384
                    3D
 Structure written by MMmdl.
 47 47  0  0  1  0            999 V2000
   -1.4045   -2.7202   -2.0417 C   0  0  0  0  0  0
   -2.6215   -1.8342   -2.2574 C   0  0  0  0  0  0
   -3.1917   -1.2503   -0.9586 C   0  0  0  0  0  0
   -2.1912   -0.4435   -0.1227 C   0  0  0  0  0  0
   -1.7015    0.8320   -0.8279 C   0  0  0  0  0  0
   -0.6688    1.6358   -0.0001 C   0  0  2  0  0  0
   -0.4704    3.0589   -0.5858 C   0  0  0  0  0  0
   -0.2381    3.1678   -2.0889 C   0  0  0  0  0  0
    1.7453    1.0994   -0.5510 C   0  0  0  0  0  0
    2.9763    0.3395   -0.0374 C   0  0  0  0  0  0
    2.5805   -1.0426    0.4633 C   0  0  0  0  0  0
    1.5861   -0.9109    1.6315 C   0  0  1  0  0  0
    2.2974   -1.0095    2.9763 C   0  0  0  0  0  0
    1.4922   -1.5404    4.1360 C   0  0  0  0  0  0
    3.4694   -0.6613    3.1309 O   0  0  0  0  0  0
    0.7925    0.4083    1.5877 C   0  0  0  0  0  0
   -1.1482   -3.2396   -2.9685 H   0  0  0  0  0  0
   -0.5337   -2.1301   -1.7454 H   0  0  0  0  0  0
   -1.5896   -3.4755   -1.2710 H   0  0  0  0  0  0
   -3.4065   -2.4228   -2.7473 H   0  0  0  0  0  0
   -2.3593   -1.0251   -2.9505 H   0  0  0  0  0  0
   -3.5737   -2.0738   -0.3388 H   0  0  0  0  0  0
   -4.0561   -0.6197   -1.2031 H   0  0  0  0  0  0
   -2.6714   -0.1644    0.8216 H   0  0  0  0  0  0
   -1.3482   -1.0883    0.1450 H   0  0  0  0  0  0
   -2.5764    1.4631   -1.0319 H   0  0  0  0  0  0
   -1.2634    0.5765   -1.7991 H   0  0  0  0  0  0
   -1.1366    1.8156    0.9794 H   0  0  0  0  0  0
    0.3357    3.5688   -0.0455 H   0  0  0  0  0  0
   -1.3733    3.6412   -0.3642 H   0  0  0  0  0  0
   -1.1325    2.8726   -2.6490 H   0  0  0  0  0  0
   -0.0161    4.2090   -2.3495 H   0  0  0  0  0  0
    0.5972    2.5586   -2.4387 H   0  0  0  0  0  0
    1.9954    2.1648   -0.5161 H   0  0  0  0  0  0
    1.5851    0.8151   -1.5980 H   0  0  0  0  0  0
    3.4413    0.9052    0.7802 H   0  0  0  0  0  0
    3.7244    0.2580   -0.8331 H   0  0  0  0  0  0
    3.4655   -1.6213    0.7471 H   0  0  0  0  0  0
    2.0999   -1.5945   -0.3572 H   0  0  0  0  0  0
    0.9002   -1.7667    1.5651 H   0  0  0  0  0  0
    0.6127   -0.9131    4.2910 H   0  0  0  0  0  0
    1.1889   -2.5693    3.9316 H   0  0  0  0  0  0
    2.1018   -1.5256    5.0439 H   0  0  0  0  0  0
   -0.1475    0.2398    2.1288 H   0  0  0  0  0  0
    1.3083    1.2196    2.1174 H   0  0  0  0  0  0
    0.4952    0.6651    0.1601 N   0  3  1  0  0  0
    0.2016   -0.2245   -0.2602 H   0  0  0  0  0  0
  1  2  1  0  0  0
  1 17  1  0  0  0
  1 18  1  0  0  0
  1 19  1  0  0  0
  2  3  1  0  0  0
  2 20  1  0  0  0
  2 21  1  0  0  0
  3  4  1  0  0  0
  3 22  1  0  0  0
  3 23  1  0  0  0
  4  5  1  0  0  0
  4 24  1  0  0  0
  4 25  1  0  0  0
  5  6  1  0  0  0
  5 26  1  0  0  0
  5 27  1  0  0  0
  6  7  1  0  0  0
  6 28  1  0  0  0
  6 46  1  0  0  0
  7  8  1  0  0  0
  7 29  1  0  0  0
  7 30  1  0  0  0
  8 31  1  0  0  0
  8 32  1  0  0  0
  8 33  1  0  0  0
  9 10  1  0  0  0
  9 34  1  0  0  0
  9 35  1  0  0  0
  9 46  1  0  0  0
 10 11  1  0  0  0
 10 36  1  0  0  0
 10 37  1  0  0  0
 11 12  1  0  0  0
 11 38  1  0  0  0
 11 39  1  0  0  0
 12 13  1  0  0  0
 12 16  1  0  0  0
 12 40  1  0  0  0
 13 14  1  0  0  0
 13 15  2  0  0  0
 14 41  1  0  0  0
 14 42  1  0  0  0
 14 43  1  0  0  0
 16 44  1  0  0  0
 16 45  1  0  0  0
 16 46  1  0  0  0
 46 47  1  0  0  0
M  CHG  1  46   1
M  END
> <energy>
23.9202

> <chiral flag>
0

> <version>
0

> <i_ionizer_Ion_state_n>
1

> <i_ionizer_Tot_Q>
1

> <s_ionizer_Ion_centers>
46

> <s_ionizer_Ion_types>
N5

> <s_ionizer_Ion_ctrs_in>
9

> <r_ionizer_Ionization_penalty>
0.00148639

> <r_ionizer_Ionization_penalty_charging>
0.00148639

> <r_ionizer_Ionization_penalty_neutral>
0

$$$$
ZINC001258447385
                    3D
 Structure written by MMmdl.
 47 47  0  0  1  0            999 V2000
   -3.7428    1.6282   -1.5735 C   0  0  0  0  0  0
   -4.2509    0.2534   -1.1632 C   0  0  0  0  0  0
   -3.3517   -0.4559   -0.1452 C   0  0  0  0  0  0
   -1.9317   -0.6944   -0.6642 C   0  0  0  0  0  0
   -1.0974   -1.5069    0.3386 C   0  0  0  0  0  0
    0.3681   -1.7206   -0.1288 C   0  0  2  0  0  0
    1.1577   -2.6061    0.8652 C   0  0  0  0  0  0
    0.6545   -4.0426    0.9282 C   0  0  0  0  0  0
    2.1493   -0.5127   -1.3221 C   0  0  0  0  0  0
    2.5975    0.8793   -1.7762 C   0  0  0  0  0  0
    2.8980    1.7937   -0.5915 C   0  0  0  0  0  0
    1.7418    1.7877    0.4126 C   0  0  2  0  0  0
    2.0835    2.5673    1.6743 C   0  0  0  0  0  0
    0.9331    3.2122    2.4073 C   0  0  0  0  0  0
    3.2323    2.6444    2.1088 O   0  0  0  0  0  0
    1.3729    0.3531    0.7984 C   0  0  0  0  0  0
   -3.5708    2.2634   -0.6994 H   0  0  0  0  0  0
   -2.8114    1.5578   -2.1425 H   0  0  0  0  0  0
   -4.4777    2.1250   -2.2146 H   0  0  0  0  0  0
   -4.3626   -0.3744   -2.0552 H   0  0  0  0  0  0
   -5.2495    0.3626   -0.7235 H   0  0  0  0  0  0
   -3.3047    0.1403    0.7734 H   0  0  0  0  0  0
   -3.8118   -1.4166    0.1213 H   0  0  0  0  0  0
   -1.9678   -1.2205   -1.6245 H   0  0  0  0  0  0
   -1.4535    0.2746   -0.8404 H   0  0  0  0  0  0
   -1.5872   -2.4797    0.4712 H   0  0  0  0  0  0
   -1.1255   -1.0170    1.3198 H   0  0  0  0  0  0
    0.2965   -2.2644   -1.0788 H   0  0  0  0  0  0
    2.2146   -2.6404    0.5751 H   0  0  0  0  0  0
    1.1198   -2.1778    1.8749 H   0  0  0  0  0  0
    0.6335   -4.4960   -0.0673 H   0  0  0  0  0  0
    1.3172   -4.6427    1.5598 H   0  0  0  0  0  0
   -0.3489   -4.1018    1.3590 H   0  0  0  0  0  0
    1.8709   -1.0873   -2.2143 H   0  0  0  0  0  0
    2.9919   -1.0334   -0.8519 H   0  0  0  0  0  0
    3.4901    0.7926   -2.4067 H   0  0  0  0  0  0
    1.8120    1.3295   -2.3983 H   0  0  0  0  0  0
    3.0850    2.8156   -0.9420 H   0  0  0  0  0  0
    3.8230    1.4530   -0.1098 H   0  0  0  0  0  0
    0.8767    2.2783   -0.0548 H   0  0  0  0  0  0
    0.4128    3.9053    1.7403 H   0  0  0  0  0  0
    1.3120    3.7733    3.2657 H   0  0  0  0  0  0
    0.2417    2.4454    2.7654 H   0  0  0  0  0  0
    2.2127   -0.1208    1.3233 H   0  0  0  0  0  0
    0.5416    0.3884    1.5083 H   0  0  0  0  0  0
    0.9712   -0.3700   -0.4390 N   0  3  2  0  0  0
    0.2629    0.1912   -0.9264 H   0  0  0  0  0  0
  1  2  1  0  0  0
  1 17  1  0  0  0
  1 18  1  0  0  0
  1 19  1  0  0  0
  2  3  1  0  0  0
  2 20  1  0  0  0
  2 21  1  0  0  0
  3  4  1  0  0  0
  3 22  1  0  0  0
  3 23  1  0  0  0
  4  5  1  0  0  0
  4 24  1  0  0  0
  4 25  1  0  0  0
  5  6  1  0  0  0
  5 26  1  0  0  0
  5 27  1  0  0  0
  6  7  1  0  0  0
  6 28  1  0  0  0
  6 46  1  0  0  0
  7  8  1  0  0  0
  7 29  1  0  0  0
  7 30  1  0  0  0
  8 31  1  0  0  0
  8 32  1  0  0  0
  8 33  1  0  0  0
  9 10  1  0  0  0
  9 34  1  0  0  0
  9 35  1  0  0  0
  9 46  1  0  0  0
 10 11  1  0  0  0
 10 36  1  0  0  0
 10 37  1  0  0  0
 11 12  1  0  0  0
 11 38  1  0  0  0
 11 39  1  0  0  0
 12 13  1  0  0  0
 12 16  1  0  0  0
 12 40  1  0  0  0
 13 14  1  0  0  0
 13 15  2  0  0  0
 14 41  1  0  0  0
 14 42  1  0  0  0
 14 43  1  0  0  0
 16 44  1  0  0  0
 16 45  1  0  0  0
 16 46  1  0  0  0
 46 47  1  0  0  0
M  CHG  1  46   1
M  END
> <energy>
10.73

> <chiral flag>
0

> <version>
0

> <i_ionizer_Ion_state_n>
1

> <i_ionizer_Tot_Q>
1

> <s_ionizer_Ion_centers>
46

> <s_ionizer_Ion_types>
N5

> <s_ionizer_Ion_ctrs_in>
9

> <r_ionizer_Ionization_penalty>
0.00148639

> <r_ionizer_Ionization_penalty_charging>
0.00148639

> <r_ionizer_Ionization_penalty_neutral>
0

$$$$
ZINC001258447386
                    3D
 Structure written by MMmdl.
 47 47  0  0  1  0            999 V2000
   -4.4010   -3.3949    0.9092 C   0  0  0  0  0  0
   -4.3575   -1.8813    0.7765 C   0  0  0  0  0  0
   -2.9624   -1.3393    1.0877 C   0  0  0  0  0  0
   -2.9413    0.1919    1.0545 C   0  0  0  0  0  0
   -1.5293    0.7588    1.2712 C   0  0  0  0  0  0
   -0.6336    0.6993   -0.0058 C   0  0  1  0  0  0
   -1.0349    1.9148   -0.9011 C   0  0  0  0  0  0
   -0.8566    1.6820   -2.3976 C   0  0  0  0  0  0
    1.1505   -0.7201    0.8951 C   0  0  0  0  0  0
    2.5478   -0.7610    1.5177 C   0  0  0  0  0  0
    3.6018   -0.2702    0.5364 C   0  0  0  0  0  0
    3.2007    1.0976   -0.0087 C   0  0  1  0  0  0
    4.1908    1.6132   -1.0439 C   0  0  0  0  0  0
    4.5624    0.7216   -2.2009 C   0  0  0  0  0  0
    4.6858    2.7382   -0.9388 O   0  0  0  0  0  0
    1.7763    1.0829   -0.5826 C   0  0  0  0  0  0
   -3.6714   -3.8696    0.2450 H   0  0  0  0  0  0
   -5.3957   -3.7702    0.6500 H   0  0  0  0  0  0
   -4.1805   -3.7033    1.9365 H   0  0  0  0  0  0
   -4.6457   -1.5965   -0.2426 H   0  0  0  0  0  0
   -5.0942   -1.4403    1.4575 H   0  0  0  0  0  0
   -2.6477   -1.6820    2.0816 H   0  0  0  0  0  0
   -2.2464   -1.7518    0.3674 H   0  0  0  0  0  0
   -3.5918    0.5654    1.8556 H   0  0  0  0  0  0
   -3.3700    0.5503    0.1124 H   0  0  0  0  0  0
   -1.0845    0.2346    2.1238 H   0  0  0  0  0  0
   -1.6163    1.8045    1.5958 H   0  0  0  0  0  0
   -0.8630   -0.2111   -0.5742 H   0  0  0  0  0  0
   -2.0959    2.1560   -0.7533 H   0  0  0  0  0  0
   -0.4966    2.8198   -0.5910 H   0  0  0  0  0  0
   -1.2837    2.5227   -2.9550 H   0  0  0  0  0  0
    0.1903    1.5978   -2.6917 H   0  0  0  0  0  0
   -1.3785    0.7739   -2.7144 H   0  0  0  0  0  0
    1.1001   -1.4352    0.0661 H   0  0  0  0  0  0
    0.4509   -1.0798    1.6550 H   0  0  0  0  0  0
    2.7851   -1.7840    1.8329 H   0  0  0  0  0  0
    2.5680   -0.1379    2.4200 H   0  0  0  0  0  0
    3.6986   -1.0017   -0.2731 H   0  0  0  0  0  0
    4.5817   -0.2158    1.0257 H   0  0  0  0  0  0
    3.2263    1.8126    0.8254 H   0  0  0  0  0  0
    3.6674    0.2937   -2.6551 H   0  0  0  0  0  0
    5.0840    1.3095   -2.9618 H   0  0  0  0  0  0
    5.2264   -0.0734   -1.8538 H   0  0  0  0  0  0
    1.5642    2.1063   -0.9099 H   0  0  0  0  0  0
    1.7247    0.4334   -1.4654 H   0  0  0  0  0  0
    0.8095    0.6539    0.4714 N   0  3  1  0  0  0
    0.9033    1.2857    1.2753 H   0  0  0  0  0  0
  1  2  1  0  0  0
  1 17  1  0  0  0
  1 18  1  0  0  0
  1 19  1  0  0  0
  2  3  1  0  0  0
  2 20  1  0  0  0
  2 21  1  0  0  0
  3  4  1  0  0  0
  3 22  1  0  0  0
  3 23  1  0  0  0
  4  5  1  0  0  0
  4 24  1  0  0  0
  4 25  1  0  0  0
  5  6  1  0  0  0
  5 26  1  0  0  0
  5 27  1  0  0  0
  6  7  1  0  0  0
  6 28  1  0  0  0
  6 46  1  0  0  0
  7  8  1  0  0  0
  7 29  1  0  0  0
  7 30  1  0  0  0
  8 31  1  0  0  0
  8 32  1  0  0  0
  8 33  1  0  0  0
  9 10  1  0  0  0
  9 34  1  0  0  0
  9 35  1  0  0  0
  9 46  1  0  0  0
 10 11  1  0  0  0
 10 36  1  0  0  0
 10 37  1  0  0  0
 11 12  1  0  0  0
 11 38  1  0  0  0
 11 39  1  0  0  0
 12 13  1  0  0  0
 12 16  1  0  0  0
 12 40  1  0  0  0
 13 14  1  0  0  0
 13 15  2  0  0  0
 14 41  1  0  0  0
 14 42  1  0  0  0
 14 43  1  0  0  0
 16 44  1  0  0  0
 16 45  1  0  0  0
 16 46  1  0  0  0
 46 47  1  0  0  0
M  CHG  1  46   1
M  END
> <energy>
19.7006

> <chiral flag>
0

> <version>
0

> <i_ionizer_Ion_state_n>
1

> <i_ionizer_Tot_Q>
1

> <s_ionizer_Ion_centers>
46

> <s_ionizer_Ion_types>
N5

> <s_ionizer_Ion_ctrs_in>
9

> <r_ionizer_Ionization_penalty>
0.00148639

> <r_ionizer_Ionization_penalty_charging>
0.00148639

> <r_ionizer_Ionization_penalty_neutral>
0

$$$$
ZINC001258447387
                    3D
 Structure written by MMmdl.
 47 47  0  0  1  0            999 V2000
   -4.4451    2.4959   -0.4004 C   0  0  0  0  0  0
   -3.5560    2.3571    0.8252 C   0  0  0  0  0  0
   -3.5240    0.9318    1.3860 C   0  0  0  0  0  0
   -2.8459   -0.1147    0.4884 C   0  0  0  0  0  0
   -1.3274    0.0827    0.3991 C   0  0  0  0  0  0
   -0.6034   -1.0269   -0.4081 C   0  0  1  0  0  0
   -0.8149   -0.8526   -1.9331 C   0  0  0  0  0  0
   -0.4342   -2.1036   -2.7265 C   0  0  0  0  0  0
    1.2074   -2.2350    0.7201 C   0  0  0  0  0  0
    2.7197   -2.4701    0.7206 C   0  0  0  0  0  0
    3.4789   -1.2049    1.1041 C   0  0  0  0  0  0
    3.0432   -0.0216    0.2363 C   0  0  2  0  0  0
    3.6678    1.2758    0.7410 C   0  0  0  0  0  0
    4.0878    2.2820   -0.3060 C   0  0  0  0  0  0
    3.7851    1.5253    1.9389 O   0  0  0  0  0  0
    1.5173    0.1222    0.2339 C   0  0  0  0  0  0
   -4.5316    3.5486   -0.6852 H   0  0  0  0  0  0
   -5.4542    2.1229   -0.1965 H   0  0  0  0  0  0
   -4.0381    1.9510   -1.2572 H   0  0  0  0  0  0
   -2.5448    2.7050    0.5881 H   0  0  0  0  0  0
   -3.9403    3.0248    1.6064 H   0  0  0  0  0  0
   -3.0144    0.9541    2.3583 H   0  0  0  0  0  0
   -4.5539    0.6083    1.5886 H   0  0  0  0  0  0
   -3.2998   -0.1141   -0.5066 H   0  0  0  0  0  0
   -3.0416   -1.1040    0.9214 H   0  0  0  0  0  0
   -1.1089    1.0597   -0.0456 H   0  0  0  0  0  0
   -0.9514    0.0863    1.4288 H   0  0  0  0  0  0
   -1.0717   -1.9803   -0.1328 H   0  0  0  0  0  0
   -0.2261   -0.0054   -2.3096 H   0  0  0  0  0  0
   -1.8642   -0.6217   -2.1490 H   0  0  0  0  0  0
    0.6270   -2.3510   -2.6200 H   0  0  0  0  0  0
   -0.6327   -1.9562   -3.7933 H   0  0  0  0  0  0
   -1.0194   -2.9664   -2.3925 H   0  0  0  0  0  0
    0.7333   -3.1652    0.3831 H   0  0  0  0  0  0
    0.8481   -2.0347    1.7375 H   0  0  0  0  0  0
    2.9706   -3.2779    1.4185 H   0  0  0  0  0  0
    3.0328   -2.8036   -0.2786 H   0  0  0  0  0  0
    3.2882   -0.9911    2.1637 H   0  0  0  0  0  0
    4.5577   -1.3694    1.0051 H   0  0  0  0  0  0
    3.3940   -0.1912   -0.7898 H   0  0  0  0  0  0
    4.8048    1.8226   -0.9938 H   0  0  0  0  0  0
    4.5751    3.1348    0.1796 H   0  0  0  0  0  0
    3.2094    2.6404   -0.8515 H   0  0  0  0  0  0
    1.1882    0.4234    1.2390 H   0  0  0  0  0  0
    1.2457    0.9359   -0.4511 H   0  0  0  0  0  0
    0.8953   -1.1528   -0.2360 N   0  3  2  0  0  0
    1.3029   -1.3923   -1.1475 H   0  0  0  0  0  0
  1  2  1  0  0  0
  1 17  1  0  0  0
  1 18  1  0  0  0
  1 19  1  0  0  0
  2  3  1  0  0  0
  2 20  1  0  0  0
  2 21  1  0  0  0
  3  4  1  0  0  0
  3 22  1  0  0  0
  3 23  1  0  0  0
  4  5  1  0  0  0
  4 24  1  0  0  0
  4 25  1  0  0  0
  5  6  1  0  0  0
  5 26  1  0  0  0
  5 27  1  0  0  0
  6  7  1  0  0  0
  6 28  1  0  0  0
  6 46  1  0  0  0
  7  8  1  0  0  0
  7 29  1  0  0  0
  7 30  1  0  0  0
  8 31  1  0  0  0
  8 32  1  0  0  0
  8 33  1  0  0  0
  9 10  1  0  0  0
  9 34  1  0  0  0
  9 35  1  0  0  0
  9 46  1  0  0  0
 10 11  1  0  0  0
 10 36  1  0  0  0
 10 37  1  0  0  0
 11 12  1  0  0  0
 11 38  1  0  0  0
 11 39  1  0  0  0
 12 13  1  0  0  0
 12 16  1  0  0  0
 12 40  1  0  0  0
 13 14  1  0  0  0
 13 15  2  0  0  0
 14 41  1  0  0  0
 14 42  1  0  0  0
 14 43  1  0  0  0
 16 44  1  0  0  0
 16 45  1  0  0  0
 16 46  1  0  0  0
 46 47  1  0  0  0
M  CHG  1  46   1
M  END
> <energy>
14.4424

> <chiral flag>
0

> <version>
0

> <i_ionizer_Ion_state_n>
1

> <i_ionizer_Tot_Q>
1

> <s_ionizer_Ion_centers>
46

> <s_ionizer_Ion_types>
N5

> <s_ionizer_Ion_ctrs_in>
9

> <r_ionizer_Ionization_penalty>
0.00148639

> <r_ionizer_Ionization_penalty_charging>
0.00148639

> <r_ionizer_Ionization_penalty_neutral>
0

$$$$
ZINC001258447436
                    3D
 Structure written by MMmdl.
 41 43  0  0  1  0            999 V2000
    2.4857   -2.3072   -1.3843 C   0  0  0  0  0  0
    1.0963   -1.8186   -1.1588 C   0  0  0  0  0  0
   -0.0719   -2.2794   -1.7278 C   0  0  0  0  0  0
   -1.1478   -1.5100   -1.2251 C   0  0  0  0  0  0
   -2.5408   -1.5382   -1.4492 C   0  0  0  0  0  0
   -3.3829   -0.6186   -0.8046 C   0  0  0  0  0  0
   -4.8704   -0.6595   -1.0379 C   0  0  0  0  0  0
   -2.8205    0.3236    0.0590 C   0  0  0  0  0  0
   -1.4401    0.3706    0.2966 C   0  0  0  0  0  0
   -0.6116   -0.5659   -0.3459 C   0  0  0  0  0  0
    0.7594   -0.7921   -0.2905 N   0  0  0  0  0  0
    1.7200   -0.0734    0.5597 C   0  0  2  0  0  0
    1.3825   -0.1818    2.0515 C   0  0  0  0  0  0
    1.9371    1.3701    0.0687 C   0  0  0  0  0  0
    3.0110    2.0898    0.8375 C   0  0  0  0  0  0
    3.2011    3.5702    0.6427 C   0  0  0  0  0  0
    2.6434    3.0519    1.9387 C   0  0  0  0  0  0
    2.8786   -2.7751   -0.4759 H   0  0  0  0  0  0
    3.1462   -1.4860   -1.6808 H   0  0  0  0  0  0
    2.5109   -3.0562   -2.1830 H   0  0  0  0  0  0
   -0.1453   -3.0902   -2.4407 H   0  0  0  0  0  0
   -2.9601   -2.2838   -2.1204 H   0  0  0  0  0  0
   -5.0660   -0.6699   -2.1162 H   0  0  0  0  0  0
   -5.3444    0.2462   -0.6423 H   0  0  0  0  0  0
   -6.4877   -1.7668   -0.4990 H   0  0  0  0  0  0
   -3.4576    1.0450    0.5657 H   0  0  0  0  0  0
   -1.0429    1.1228    0.9681 H   0  0  0  0  0  0
    2.6780   -0.5951    0.4489 H   0  0  0  0  0  0
    0.5501    0.4646    2.3425 H   0  0  0  0  0  0
    1.1233   -1.2114    2.3214 H   0  0  0  0  0  0
    2.2438    0.1098    2.6632 H   0  0  0  0  0  0
    1.0012    1.9396    0.1058 H   0  0  0  0  0  0
    2.2364    1.3451   -0.9877 H   0  0  0  0  0  0
    3.9115    1.4962    0.9526 H   0  0  0  0  0  0
    2.5287    4.0961   -0.0249 H   0  0  0  0  0  0
    4.2140    3.9556    0.6439 H   0  0  0  0  0  0
    3.2783    3.0893    2.8167 H   0  0  0  0  0  0
    1.5951    3.2376    2.1445 H   0  0  0  0  0  0
   -5.4727   -1.8280   -0.4152 N   0  3  0  0  0  0
   -5.1395   -2.6776   -0.8858 H   0  0  0  0  0  0
   -5.2110   -1.8613    0.5770 H   0  0  0  0  0  0
  1  2  1  0  0  0
  1 18  1  0  0  0
  1 19  1  0  0  0
  1 20  1  0  0  0
  2  3  2  0  0  0
  2 11  1  0  0  0
  3  4  1  0  0  0
  3 21  1  0  0  0
  4  5  2  0  0  0
  4 10  1  0  0  0
  5  6  1  0  0  0
  5 22  1  0  0  0
  6  7  1  0  0  0
  6  8  2  0  0  0
  7 23  1  0  0  0
  7 24  1  0  0  0
  7 39  1  0  0  0
  8  9  1  0  0  0
  8 26  1  0  0  0
  9 10  2  0  0  0
  9 27  1  0  0  0
 10 11  1  0  0  0
 11 12  1  0  0  0
 12 13  1  0  0  0
 12 14  1  0  0  0
 12 28  1  0  0  0
 13 29  1  0  0  0
 13 30  1  0  0  0
 13 31  1  0  0  0
 14 15  1  0  0  0
 14 32  1  0  0  0
 14 33  1  0  0  0
 15 16  1  0  0  0
 15 17  1  0  0  0
 15 34  1  0  0  0
 16 17  1  0  0  0
 16 35  1  0  0  0
 16 36  1  0  0  0
 17 37  1  0  0  0
 17 38  1  0  0  0
 25 39  1  0  0  0
 39 40  1  0  0  0
 39 41  1  0  0  0
M  CHG  1  39   1
M  END
> <energy>
43.6598

> <chiral flag>
0

> <version>
0

> <i_ionizer_Ion_state_n>
1

> <i_ionizer_Tot_Q>
1

> <s_ionizer_Ion_centers>
39

> <s_ionizer_Ion_types>
N5

> <s_ionizer_Ion_ctrs_in>
8

> <r_ionizer_Ionization_penalty>
0.000470441

> <r_ionizer_Ionization_penalty_charging>
0.000470441

> <r_ionizer_Ionization_penalty_neutral>
0

$$$$
ZINC001258447437
                    3D
 Structure written by MMmdl.
 41 43  0  0  1  0            999 V2000
    0.7592   -3.5800   -0.6723 C   0  0  0  0  0  0
   -0.1480   -2.4030   -0.5706 C   0  0  0  0  0  0
   -1.5219   -2.3723   -0.7020 C   0  0  0  0  0  0
   -1.9578   -1.0350   -0.5372 C   0  0  0  0  0  0
   -3.2280   -0.4210   -0.5758 C   0  0  0  0  0  0
   -3.3564    0.9597   -0.3570 C   0  0  0  0  0  0
   -4.7095    1.6165   -0.4108 C   0  0  0  0  0  0
   -2.2074    1.7178   -0.1192 C   0  0  0  0  0  0
   -0.9363    1.1306   -0.0806 C   0  0  0  0  0  0
   -0.8238   -0.2542   -0.2960 C   0  0  0  0  0  0
    0.2757   -1.1050   -0.3362 N   0  0  0  0  0  0
    1.6815   -0.7019   -0.1746 C   0  0  1  0  0  0
    2.1271    0.2851   -1.2598 C   0  0  0  0  0  0
    1.9791   -0.2348    1.2643 C   0  0  0  0  0  0
    3.4281    0.1117    1.4739 C   0  0  0  0  0  0
    3.8499    0.8567    2.7128 C   0  0  0  0  0  0
    3.8865    1.5448    1.3774 C   0  0  0  0  0  0
    0.1869   -4.5056   -0.7974 H   0  0  0  0  0  0
    1.3647   -3.6872    0.2335 H   0  0  0  0  0  0
    1.4218   -3.4803   -1.5385 H   0  0  0  0  0  0
   -2.1509   -3.2299   -0.8987 H   0  0  0  0  0  0
   -4.1073   -1.0252   -0.7838 H   0  0  0  0  0  0
   -5.4653    0.9396    0.0033 H   0  0  0  0  0  0
   -4.7157    2.5120    0.2213 H   0  0  0  0  0  0
   -5.9360    2.5115   -1.7626 H   0  0  0  0  0  0
   -2.2903    2.7907    0.0400 H   0  0  0  0  0  0
   -0.0701    1.7537    0.1126 H   0  0  0  0  0  0
    2.2821   -1.6038   -0.3443 H   0  0  0  0  0  0
    1.7928   -0.0436   -2.2499 H   0  0  0  0  0  0
    1.7417    1.2943   -1.0906 H   0  0  0  0  0  0
    3.2199    0.3582   -1.2931 H   0  0  0  0  0  0
    1.3482    0.6170    1.5394 H   0  0  0  0  0  0
    1.7167   -1.0421    1.9615 H   0  0  0  0  0  0
    4.0966   -0.6666    1.1242 H   0  0  0  0  0  0
    4.7954    0.5879    3.1707 H   0  0  0  0  0  0
    3.0879    1.1653    3.4194 H   0  0  0  0  0  0
    3.1515    2.3206    1.1933 H   0  0  0  0  0  0
    4.8545    1.7417    0.9302 H   0  0  0  0  0  0
   -5.0667    1.9769   -1.7733 N   0  3  0  0  0  0
   -4.3180    2.5465   -2.1848 H   0  0  0  0  0  0
   -5.1943    1.1245   -2.3313 H   0  0  0  0  0  0
  1  2  1  0  0  0
  1 18  1  0  0  0
  1 19  1  0  0  0
  1 20  1  0  0  0
  2  3  2  0  0  0
  2 11  1  0  0  0
  3  4  1  0  0  0
  3 21  1  0  0  0
  4  5  2  0  0  0
  4 10  1  0  0  0
  5  6  1  0  0  0
  5 22  1  0  0  0
  6  7  1  0  0  0
  6  8  2  0  0  0
  7 23  1  0  0  0
  7 24  1  0  0  0
  7 39  1  0  0  0
  8  9  1  0  0  0
  8 26  1  0  0  0
  9 10  2  0  0  0
  9 27  1  0  0  0
 10 11  1  0  0  0
 11 12  1  0  0  0
 12 13  1  0  0  0
 12 14  1  0  0  0
 12 28  1  0  0  0
 13 29  1  0  0  0
 13 30  1  0  0  0
 13 31  1  0  0  0
 14 15  1  0  0  0
 14 32  1  0  0  0
 14 33  1  0  0  0
 15 16  1  0  0  0
 15 17  1  0  0  0
 15 34  1  0  0  0
 16 17  1  0  0  0
 16 35  1  0  0  0
 16 36  1  0  0  0
 17 37  1  0  0  0
 17 38  1  0  0  0
 25 39  1  0  0  0
 39 40  1  0  0  0
 39 41  1  0  0  0
M  CHG  1  39   1
M  END
> <energy>
43.8267

> <chiral flag>
0

> <version>
0

> <i_ionizer_Ion_state_n>
1

> <i_ionizer_Tot_Q>
1

> <s_ionizer_Ion_centers>
39

> <s_ionizer_Ion_types>
N5

> <s_ionizer_Ion_ctrs_in>
8

> <r_ionizer_Ionization_penalty>
0.000470441

> <r_ionizer_Ionization_penalty_charging>
0.000470441

> <r_ionizer_Ionization_penalty_neutral>
0

$$$$
ZINC001258447456
                    3D
 Structure written by MMmdl.
 38 37  0  0  1  0            999 V2000
   -2.3407    3.3582    0.6512 C   0  0  0  0  0  0
   -2.9835    2.5696   -0.4809 C   0  0  0  0  0  0
   -2.0241    1.6197   -1.2012 C   0  0  0  0  0  0
   -1.5046    0.4759   -0.3226 C   0  0  0  0  0  0
   -0.6142   -0.4732   -1.1394 C   0  0  0  0  0  0
    0.2791   -1.4753   -0.3535 C   0  0  2  0  0  0
   -0.5238   -2.2427    0.7237 C   0  0  0  0  0  0
    0.2790   -3.3355    1.4239 C   0  0  0  0  0  0
    1.4571    0.1630    1.1121 C   0  0  0  0  0  0
    2.5624   -0.7076   -0.8855 C   0  0  0  0  0  0
    3.9745   -0.2712   -0.4435 C   0  0  0  0  0  0
    3.9588    1.0133    0.0008 F   0  0  0  0  0  0
    4.4340   -1.0434    0.5717 F   0  0  0  0  0  0
   -2.0330    2.7024    1.4711 H   0  0  0  0  0  0
   -1.4644    3.9146    0.3008 H   0  0  0  0  0  0
   -3.0575    4.0787    1.0571 H   0  0  0  0  0  0
   -3.8415    2.0082   -0.0938 H   0  0  0  0  0  0
   -3.3783    3.2804   -1.2180 H   0  0  0  0  0  0
   -2.5468    1.1938   -2.0671 H   0  0  0  0  0  0
   -1.1743    2.1940   -1.5896 H   0  0  0  0  0  0
   -0.9569    0.8980    0.5187 H   0  0  0  0  0  0
   -2.3495   -0.0837    0.0960 H   0  0  0  0  0  0
   -1.2753   -1.0597   -1.7947 H   0  0  0  0  0  0
    0.0140    0.1133   -1.8187 H   0  0  0  0  0  0
    0.5574   -2.2472   -1.0883 H   0  0  0  0  0  0
   -0.9270   -1.5635    1.4835 H   0  0  0  0  0  0
   -1.3890   -2.7137    0.2393 H   0  0  0  0  0  0
    1.1040   -2.9168    2.0101 H   0  0  0  0  0  0
   -0.3676   -3.8875    2.1131 H   0  0  0  0  0  0
    0.6909   -4.0491    0.7026 H   0  0  0  0  0  0
    0.6968   -0.0218    1.8768 H   0  0  0  0  0  0
    1.2306    1.1091    0.6087 H   0  0  0  0  0  0
    2.3955    0.2878    1.6646 H   0  0  0  0  0  0
    2.1932    0.0452   -1.5921 H   0  0  0  0  0  0
    2.6899   -1.6485   -1.4357 H   0  0  0  0  0  0
    4.6789   -0.3357   -1.2779 H   0  0  0  0  0  0
    1.6032   -1.0152    0.2167 N   0  3  2  0  0  0
    1.9902   -1.7861    0.7737 H   0  0  0  0  0  0
  1  2  1  0  0  0
  1 14  1  0  0  0
  1 15  1  0  0  0
  1 16  1  0  0  0
  2  3  1  0  0  0
  2 17  1  0  0  0
  2 18  1  0  0  0
  3  4  1  0  0  0
  3 19  1  0  0  0
  3 20  1  0  0  0
  4  5  1  0  0  0
  4 21  1  0  0  0
  4 22  1  0  0  0
  5  6  1  0  0  0
  5 23  1  0  0  0
  5 24  1  0  0  0
  6  7  1  0  0  0
  6 25  1  0  0  0
  6 37  1  0  0  0
  7  8  1  0  0  0
  7 26  1  0  0  0
  7 27  1  0  0  0
  8 28  1  0  0  0
  8 29  1  0  0  0
  8 30  1  0  0  0
  9 31  1  0  0  0
  9 32  1  0  0  0
  9 33  1  0  0  0
  9 37  1  0  0  0
 10 11  1  0  0  0
 10 34  1  0  0  0
 10 35  1  0  0  0
 10 37  1  0  0  0
 11 12  1  0  0  0
 11 13  1  0  0  0
 11 36  1  0  0  0
 37 38  1  0  0  0
M  CHG  1  37   1
M  END
> <energy>
55.9086

> <chiral flag>
0

> <version>
0

> <i_ionizer_Ion_state_n>
1

> <i_ionizer_Tot_Q>
1

> <s_ionizer_Ion_centers>
37

> <s_ionizer_Ion_types>
N5

> <s_ionizer_Ion_ctrs_in>
9

> <r_ionizer_Ionization_penalty>
0.00148639

> <r_ionizer_Ionization_penalty_charging>
0.00148639

> <r_ionizer_Ionization_penalty_neutral>
0

$$$$
ZINC001258447457
                    3D
 Structure written by MMmdl.
 38 37  0  0  1  0            999 V2000
   -3.4274    2.0027   -1.3691 C   0  0  0  0  0  0
   -2.6372    0.8511   -1.9709 C   0  0  0  0  0  0
   -1.7899    0.1485   -0.9045 C   0  0  0  0  0  0
   -0.9054   -0.9333   -1.5229 C   0  0  0  0  0  0
   -0.1959   -1.8574   -0.5223 C   0  0  0  0  0  0
    1.1770   -1.4603    0.1049 C   0  0  1  0  0  0
    2.1181   -0.6465   -0.8159 C   0  0  0  0  0  0
    1.9591    0.8609   -0.8318 C   0  0  0  0  0  0
    2.4425   -1.1366    2.2082 C   0  0  0  0  0  0
    0.1753   -0.1851    2.0853 C   0  0  0  0  0  0
    0.5564    1.2845    2.3184 C   0  0  0  0  0  0
   -0.2918    2.0936    1.6328 F   0  0  0  0  0  0
    0.3907    1.5924    3.6339 F   0  0  0  0  0  0
   -4.0775    1.6523   -0.5615 H   0  0  0  0  0  0
   -2.7554    2.7632   -0.9602 H   0  0  0  0  0  0
   -4.0529    2.4736   -2.1334 H   0  0  0  0  0  0
   -1.9962    1.2315   -2.7758 H   0  0  0  0  0  0
   -3.3306    0.1324   -2.4240 H   0  0  0  0  0  0
   -1.1773    0.8926   -0.3901 H   0  0  0  0  0  0
   -2.4582   -0.2988   -0.1612 H   0  0  0  0  0  0
   -1.5581   -1.5755   -2.1324 H   0  0  0  0  0  0
   -0.1940   -0.4961   -2.2275 H   0  0  0  0  0  0
    0.0063   -2.7835   -1.0832 H   0  0  0  0  0  0
   -0.8965   -2.1779    0.2595 H   0  0  0  0  0  0
    1.6735   -2.4468    0.1153 H   0  0  0  0  0  0
    3.1593   -0.8609   -0.5398 H   0  0  0  0  0  0
    2.0142   -1.0234   -1.8408 H   0  0  0  0  0  0
    2.5217    1.2839   -1.6700 H   0  0  0  0  0  0
    0.9250    1.1810   -0.9390 H   0  0  0  0  0  0
    2.3704    1.3040    0.0740 H   0  0  0  0  0  0
    3.0326   -2.0129    1.9178 H   0  0  0  0  0  0
    2.3213   -1.1949    3.2953 H   0  0  0  0  0  0
    3.0329   -0.2470    1.9740 H   0  0  0  0  0  0
   -0.7476   -0.2229    1.5089 H   0  0  0  0  0  0
   -0.1138   -0.5931    3.0629 H   0  0  0  0  0  0
    1.5782    1.5407    2.0454 H   0  0  0  0  0  0
    1.1007   -1.2921    1.6181 N   0  3  1  0  0  0
    0.7120   -2.1684    1.9859 H   0  0  0  0  0  0
  1  2  1  0  0  0
  1 14  1  0  0  0
  1 15  1  0  0  0
  1 16  1  0  0  0
  2  3  1  0  0  0
  2 17  1  0  0  0
  2 18  1  0  0  0
  3  4  1  0  0  0
  3 19  1  0  0  0
  3 20  1  0  0  0
  4  5  1  0  0  0
  4 21  1  0  0  0
  4 22  1  0  0  0
  5  6  1  0  0  0
  5 23  1  0  0  0
  5 24  1  0  0  0
  6  7  1  0  0  0
  6 25  1  0  0  0
  6 37  1  0  0  0
  7  8  1  0  0  0
  7 26  1  0  0  0
  7 27  1  0  0  0
  8 28  1  0  0  0
  8 29  1  0  0  0
  8 30  1  0  0  0
  9 31  1  0  0  0
  9 32  1  0  0  0
  9 33  1  0  0  0
  9 37  1  0  0  0
 10 11  1  0  0  0
 10 34  1  0  0  0
 10 35  1  0  0  0
 10 37  1  0  0  0
 11 12  1  0  0  0
 11 13  1  0  0  0
 11 36  1  0  0  0
 37 38  1  0  0  0
M  CHG  1  37   1
M  END
> <energy>
71.1934

> <chiral flag>
0

> <version>
0

> <i_ionizer_Ion_state_n>
1

> <i_ionizer_Tot_Q>
1

> <s_ionizer_Ion_centers>
37

> <s_ionizer_Ion_types>
N5

> <s_ionizer_Ion_ctrs_in>
9

> <r_ionizer_Ionization_penalty>
0.00148639

> <r_ionizer_Ionization_penalty_charging>
0.00148639

> <r_ionizer_Ionization_penalty_neutral>
0

$$$$
ZINC001258447706
                    3D
 Structure written by MMmdl.
 43 44  0  0  1  0            999 V2000
    3.4090   -2.7721   -1.2274 C   0  0  0  0  0  0
    3.2495   -1.4305   -0.5764 C   0  0  0  0  0  0
    4.2912   -0.5030   -0.5847 C   0  0  0  0  0  0
    4.1392    0.7348    0.0432 C   0  0  0  0  0  0
    2.9458    1.0725    0.7015 C   0  0  0  0  0  0
    2.8381    2.4180    1.3646 C   0  0  0  0  0  0
    1.8977    0.1338    0.7384 C   0  0  0  0  0  0
    0.5734    0.4117    1.4196 C   0  0  0  0  0  0
   -0.4754    0.9448    0.4322 C   0  0  0  0  0  0
   -2.9262    1.2493    0.1999 C   0  0  1  0  0  0
   -2.8414    2.5871   -0.5392 C   0  0  0  0  0  0
   -3.1940    0.0947   -0.7949 C   0  0  0  0  0  0
   -3.3404   -1.2429   -0.1186 C   0  0  0  0  0  0
   -3.5163   -2.4878   -0.9501 C   0  0  0  0  0  0
   -2.2353   -2.2665   -0.1965 C   0  0  0  0  0  0
    2.0643   -1.1084    0.0954 C   0  0  0  0  0  0
    2.4802   -3.0752   -1.7218 H   0  0  0  0  0  0
    3.6761   -3.5232   -0.4778 H   0  0  0  0  0  0
    4.1916   -2.7492   -1.9932 H   0  0  0  0  0  0
    5.2308   -0.7335   -1.0818 H   0  0  0  0  0  0
    4.9669    1.4401    0.0142 H   0  0  0  0  0  0
    3.7062    3.0473    1.1400 H   0  0  0  0  0  0
    1.9513    2.9509    1.0074 H   0  0  0  0  0  0
    2.7852    2.2998    2.4515 H   0  0  0  0  0  0
    0.7058    1.1111    2.2535 H   0  0  0  0  0  0
    0.2163   -0.5206    1.8789 H   0  0  0  0  0  0
   -0.5189    0.2739   -0.4303 H   0  0  0  0  0  0
   -0.1673    1.9292    0.0616 H   0  0  0  0  0  0
   -3.8017    1.3058    0.8608 H   0  0  0  0  0  0
   -2.6790    3.4141    0.1606 H   0  0  0  0  0  0
   -3.7767    2.7867   -1.0733 H   0  0  0  0  0  0
   -2.0312    2.5950   -1.2757 H   0  0  0  0  0  0
   -4.1342    0.3045   -1.3207 H   0  0  0  0  0  0
   -2.4162    0.0574   -1.5672 H   0  0  0  0  0  0
   -3.9146   -1.1826    0.7991 H   0  0  0  0  0  0
   -3.4892   -2.3998   -2.0299 H   0  0  0  0  0  0
   -4.1943   -3.2509   -0.5824 H   0  0  0  0  0  0
   -2.0455   -2.8656    0.6858 H   0  0  0  0  0  0
   -1.3477   -2.0328   -0.7720 H   0  0  0  0  0  0
    1.2524   -1.8342    0.1190 H   0  0  0  0  0  0
   -1.7826    1.0325    1.1365 N   0  3  0  0  0  0
   -1.9390    0.1570    1.6495 H   0  0  0  0  0  0
   -1.7471    1.8159    1.7992 H   0  0  0  0  0  0
  1  2  1  0  0  0
  1 17  1  0  0  0
  1 18  1  0  0  0
  1 19  1  0  0  0
  2  3  2  0  0  0
  2 16  1  0  0  0
  3  4  1  0  0  0
  3 20  1  0  0  0
  4  5  2  0  0  0
  4 21  1  0  0  0
  5  6  1  0  0  0
  5  7  1  0  0  0
  6 22  1  0  0  0
  6 23  1  0  0  0
  6 24  1  0  0  0
  7  8  1  0  0  0
  7 16  2  0  0  0
  8  9  1  0  0  0
  8 25  1  0  0  0
  8 26  1  0  0  0
  9 27  1  0  0  0
  9 28  1  0  0  0
  9 41  1  0  0  0
 10 11  1  0  0  0
 10 12  1  0  0  0
 10 29  1  0  0  0
 10 41  1  0  0  0
 11 30  1  0  0  0
 11 31  1  0  0  0
 11 32  1  0  0  0
 12 13  1  0  0  0
 12 33  1  0  0  0
 12 34  1  0  0  0
 13 14  1  0  0  0
 13 15  1  0  0  0
 13 35  1  0  0  0
 14 15  1  0  0  0
 14 36  1  0  0  0
 14 37  1  0  0  0
 15 38  1  0  0  0
 15 39  1  0  0  0
 16 40  1  0  0  0
 41 42  1  0  0  0
 41 43  1  0  0  0
M  CHG  1  41   1
M  END
> <energy>
65.6506

> <chiral flag>
0

> <version>
0

> <i_ionizer_Ion_state_n>
1

> <i_ionizer_Tot_Q>
1

> <s_ionizer_Ion_centers>
41

> <s_ionizer_Ion_types>
N5

> <s_ionizer_Ion_ctrs_in>
10

> <r_ionizer_Ionization_penalty>
0.000148807

> <r_ionizer_Ionization_penalty_charging>
0.000148807

> <r_ionizer_Ionization_penalty_neutral>
0

$$$$
ZINC001258447709
                    3D
 Structure written by MMmdl.
 43 44  0  0  1  0            999 V2000
    3.0372    1.4997   -2.2815 C   0  0  0  0  0  0
    2.6764    0.5159   -1.2085 C   0  0  0  0  0  0
    3.4456    0.4367   -0.0482 C   0  0  0  0  0  0
    3.1171   -0.4796    0.9494 C   0  0  0  0  0  0
    2.0127   -1.3360    0.8086 C   0  0  0  0  0  0
    1.7081   -2.3026    1.9217 C   0  0  0  0  0  0
    1.2060   -1.2506   -0.3496 C   0  0  0  0  0  0
    0.0113   -2.1737   -0.5310 C   0  0  0  0  0  0
   -1.1204   -1.7427   -1.4908 C   0  0  0  0  0  0
   -2.3201   -0.2180    0.0567 C   0  0  2  0  0  0
   -3.6789   -0.9182    0.1409 C   0  0  0  0  0  0
   -2.4978    1.2956    0.3200 C   0  0  0  0  0  0
   -1.1818    2.0146    0.4433 C   0  0  0  0  0  0
   -0.4057    1.9727    1.7337 C   0  0  0  0  0  0
   -1.0648    3.2517    1.2957 C   0  0  0  0  0  0
    1.5706   -0.3327   -1.3521 C   0  0  0  0  0  0
    4.0276    1.2683   -2.6860 H   0  0  0  0  0  0
    2.3211    1.4748   -3.1093 H   0  0  0  0  0  0
    3.0419    2.5162   -1.8750 H   0  0  0  0  0  0
    4.3062    1.0875    0.0858 H   0  0  0  0  0  0
    3.7342   -0.5227    1.8442 H   0  0  0  0  0  0
    1.5784   -3.3158    1.5278 H   0  0  0  0  0  0
    2.5240   -2.3447    2.6515 H   0  0  0  0  0  0
    0.8008   -1.9929    2.4501 H   0  0  0  0  0  0
   -0.4460   -2.3746    0.4442 H   0  0  0  0  0  0
    0.4032   -3.1351   -0.8887 H   0  0  0  0  0  0
   -1.9064   -2.5065   -1.4730 H   0  0  0  0  0  0
   -0.7297   -1.7567   -2.5155 H   0  0  0  0  0  0
   -1.6729   -0.6080    0.8493 H   0  0  0  0  0  0
   -4.1532   -0.7261    1.1095 H   0  0  0  0  0  0
   -3.5789   -2.0033    0.0383 H   0  0  0  0  0  0
   -4.3615   -0.5640   -0.6398 H   0  0  0  0  0  0
   -3.0789    1.4334    1.2411 H   0  0  0  0  0  0
   -3.0809    1.7577   -0.4868 H   0  0  0  0  0  0
   -0.6145    1.9873   -0.4813 H   0  0  0  0  0  0
   -0.8285    1.4424    2.5785 H   0  0  0  0  0  0
    0.6738    1.8966    1.6598 H   0  0  0  0  0  0
   -0.4277    4.0529    0.9387 H   0  0  0  0  0  0
   -1.9335    3.5890    1.8489 H   0  0  0  0  0  0
    0.9774   -0.2576   -2.2604 H   0  0  0  0  0  0
   -1.7060   -0.3886   -1.2937 N   0  3  0  0  0  0
   -0.9627    0.3105   -1.4074 H   0  0  0  0  0  0
   -2.4302   -0.2371   -2.0056 H   0  0  0  0  0  0
  1  2  1  0  0  0
  1 17  1  0  0  0
  1 18  1  0  0  0
  1 19  1  0  0  0
  2  3  2  0  0  0
  2 16  1  0  0  0
  3  4  1  0  0  0
  3 20  1  0  0  0
  4  5  2  0  0  0
  4 21  1  0  0  0
  5  6  1  0  0  0
  5  7  1  0  0  0
  6 22  1  0  0  0
  6 23  1  0  0  0
  6 24  1  0  0  0
  7  8  1  0  0  0
  7 16  2  0  0  0
  8  9  1  0  0  0
  8 25  1  0  0  0
  8 26  1  0  0  0
  9 27  1  0  0  0
  9 28  1  0  0  0
  9 41  1  0  0  0
 10 11  1  0  0  0
 10 12  1  0  0  0
 10 29  1  0  0  0
 10 41  1  0  0  0
 11 30  1  0  0  0
 11 31  1  0  0  0
 11 32  1  0  0  0
 12 13  1  0  0  0
 12 33  1  0  0  0
 12 34  1  0  0  0
 13 14  1  0  0  0
 13 15  1  0  0  0
 13 35  1  0  0  0
 14 15  1  0  0  0
 14 36  1  0  0  0
 14 37  1  0  0  0
 15 38  1  0  0  0
 15 39  1  0  0  0
 16 40  1  0  0  0
 41 42  1  0  0  0
 41 43  1  0  0  0
M  CHG  1  41   1
M  END
> <energy>
68.4096

> <chiral flag>
0

> <version>
0

> <i_ionizer_Ion_state_n>
1

> <i_ionizer_Tot_Q>
1

> <s_ionizer_Ion_centers>
41

> <s_ionizer_Ion_types>
N5

> <s_ionizer_Ion_ctrs_in>
10

> <r_ionizer_Ionization_penalty>
0.000148807

> <r_ionizer_Ionization_penalty_charging>
0.000148807

> <r_ionizer_Ionization_penalty_neutral>
0

$$$$
ZINC001258447738
                    3D
 Structure written by MMmdl.
 40 41  0  0  1  0            999 V2000
   -1.3903   -1.4585    2.3396 C   0  0  0  0  0  0
   -0.6772   -0.5200    1.3544 C   0  0  2  0  0  0
   -1.5154    0.7540    1.0964 C   0  0  0  0  0  0
   -2.7537    0.5444    0.2632 C   0  0  0  0  0  0
   -2.8423    1.1340   -1.1216 C   0  0  0  0  0  0
   -3.6653    1.7142   -0.0080 C   0  0  0  0  0  0
    1.0660   -1.3173   -0.2633 C   0  0  0  0  0  0
    1.8540   -2.1009    0.8145 C   0  0  0  0  0  0
    1.1530   -2.1823   -1.5486 C   0  0  0  0  0  0
    1.6267    0.0789   -0.5868 C   0  0  0  0  0  0
    2.7307    0.6319    0.0809 C   0  0  0  0  0  0
    3.2045    1.9092   -0.2395 C   0  0  0  0  0  0
    2.5853    2.6588   -1.2348 C   0  0  0  0  0  0
    1.4851    2.1388   -1.9064 C   0  0  0  0  0  0
    1.0129    0.8638   -1.5852 C   0  0  0  0  0  0
   -1.6802   -0.9217    3.2498 H   0  0  0  0  0  0
   -2.2957   -1.9003    1.9086 H   0  0  0  0  0  0
   -0.7305   -2.2820    2.6402 H   0  0  0  0  0  0
    0.2337   -0.1803    1.8615 H   0  0  0  0  0  0
   -0.8781    1.5119    0.6238 H   0  0  0  0  0  0
   -1.8172    1.1764    2.0639 H   0  0  0  0  0  0
   -3.2345   -0.4088    0.4415 H   0  0  0  0  0  0
   -2.0137    1.7247   -1.4906 H   0  0  0  0  0  0
   -3.3439    0.5504   -1.8847 H   0  0  0  0  0  0
   -4.7340    1.5358   -0.0210 H   0  0  0  0  0  0
   -3.3817    2.6898    0.3705 H   0  0  0  0  0  0
    1.8930   -1.5839    1.7792 H   0  0  0  0  0  0
    1.4074   -3.0853    0.9941 H   0  0  0  0  0  0
    2.8901   -2.2723    0.4983 H   0  0  0  0  0  0
    2.1890   -2.2450   -1.9079 H   0  0  0  0  0  0
    0.5494   -1.7805   -2.3724 H   0  0  0  0  0  0
    0.8055   -3.2068   -1.3675 H   0  0  0  0  0  0
    3.2448    0.0877    0.8665 H   0  0  0  0  0  0
    4.0584    2.3183    0.2942 H   0  0  0  0  0  0
    2.9524    3.6523   -1.4787 H   0  0  0  0  0  0
    0.9854    2.7242   -2.6729 H   0  0  0  0  0  0
    0.1388    0.4840   -2.1115 H   0  0  0  0  0  0
   -0.4006   -1.2667    0.0828 N   0  3  0  0  0  0
   -0.7458   -2.2282    0.1864 H   0  0  0  0  0  0
   -0.9021   -0.8037   -0.6842 H   0  0  0  0  0  0
  1  2  1  0  0  0
  1 16  1  0  0  0
  1 17  1  0  0  0
  1 18  1  0  0  0
  2  3  1  0  0  0
  2 19  1  0  0  0
  2 38  1  0  0  0
  3  4  1  0  0  0
  3 20  1  0  0  0
  3 21  1  0  0  0
  4  5  1  0  0  0
  4  6  1  0  0  0
  4 22  1  0  0  0
  5  6  1  0  0  0
  5 23  1  0  0  0
  5 24  1  0  0  0
  6 25  1  0  0  0
  6 26  1  0  0  0
  7  8  1  0  0  0
  7  9  1  0  0  0
  7 10  1  0  0  0
  7 38  1  0  0  0
  8 27  1  0  0  0
  8 28  1  0  0  0
  8 29  1  0  0  0
  9 30  1  0  0  0
  9 31  1  0  0  0
  9 32  1  0  0  0
 10 11  2  0  0  0
 10 15  1  0  0  0
 11 12  1  0  0  0
 11 33  1  0  0  0
 12 13  2  0  0  0
 12 34  1  0  0  0
 13 14  1  0  0  0
 13 35  1  0  0  0
 14 15  2  0  0  0
 14 36  1  0  0  0
 15 37  1  0  0  0
 38 39  1  0  0  0
 38 40  1  0  0  0
M  CHG  1  38   1
M  END
> <energy>
57.453

> <chiral flag>
0

> <version>
0

> <i_ionizer_Ion_state_n>
1

> <i_ionizer_Tot_Q>
1

> <s_ionizer_Ion_centers>
38

> <s_ionizer_Ion_types>
N5

> <s_ionizer_Ion_ctrs_in>
7

> <r_ionizer_Ionization_penalty>
0.000148807

> <r_ionizer_Ionization_penalty_charging>
0.000148807

> <r_ionizer_Ionization_penalty_neutral>
0

$$$$
ZINC001258447739
                    3D
 Structure written by MMmdl.
 40 41  0  0  1  0            999 V2000
   -0.3957   -0.4771   -2.4202 C   0  0  0  0  0  0
   -1.1433    0.0822   -1.2043 C   0  0  1  0  0  0
   -1.4180   -1.0388   -0.1793 C   0  0  0  0  0  0
   -2.6648   -0.7971    0.6308 C   0  0  0  0  0  0
   -3.2315   -1.9269    1.4509 C   0  0  0  0  0  0
   -3.9721   -1.4382    0.2371 C   0  0  0  0  0  0
    0.5140    1.4541    0.2628 C   0  0  0  0  0  0
    1.1079    2.8820    0.0835 C   0  0  0  0  0  0
   -0.1366    1.4779    1.6672 C   0  0  0  0  0  0
    1.6843    0.4688    0.1216 C   0  0  0  0  0  0
    2.0734   -0.3854    1.1737 C   0  0  0  0  0  0
    3.1896   -1.2194    1.0650 C   0  0  0  0  0  0
    3.9478   -1.2241   -0.0976 C   0  0  0  0  0  0
    3.5897   -0.3957   -1.1579 C   0  0  0  0  0  0
    2.4711    0.4388   -1.0478 C   0  0  0  0  0  0
   -0.0869    0.3237   -3.1009 H   0  0  0  0  0  0
   -1.0560   -1.1428   -2.9884 H   0  0  0  0  0  0
    0.4855   -1.0576   -2.1354 H   0  0  0  0  0  0
   -2.1247    0.3741   -1.6093 H   0  0  0  0  0  0
   -1.5332   -1.9904   -0.7163 H   0  0  0  0  0  0
   -0.5650   -1.1917    0.4842 H   0  0  0  0  0  0
   -2.7092    0.1977    1.0606 H   0  0  0  0  0  0
   -2.7475   -2.8965    1.3942 H   0  0  0  0  0  0
   -3.6378   -1.6900    2.4288 H   0  0  0  0  0  0
   -4.8869   -0.8773    0.3949 H   0  0  0  0  0  0
   -3.9983   -2.0848   -0.6347 H   0  0  0  0  0  0
    0.3548    3.6583    0.2591 H   0  0  0  0  0  0
    1.9294    3.0589    0.7898 H   0  0  0  0  0  0
    1.5089    3.0497   -0.9231 H   0  0  0  0  0  0
   -0.9457    2.2193    1.7223 H   0  0  0  0  0  0
    0.5954    1.7558    2.4380 H   0  0  0  0  0  0
   -0.5579    0.5132    1.9611 H   0  0  0  0  0  0
    1.5221   -0.4166    2.1093 H   0  0  0  0  0  0
    3.4651   -1.8585    1.9010 H   0  0  0  0  0  0
    4.8147   -1.8717   -0.1797 H   0  0  0  0  0  0
    4.1814   -0.3932   -2.0696 H   0  0  0  0  0  0
    2.2156    1.0747   -1.8940 H   0  0  0  0  0  0
   -0.5761    1.4424   -0.8130 N   0  3  0  0  0  0
   -0.1815    1.8691   -1.6595 H   0  0  0  0  0  0
   -1.3555    2.0170   -0.4716 H   0  0  0  0  0  0
  1  2  1  0  0  0
  1 16  1  0  0  0
  1 17  1  0  0  0
  1 18  1  0  0  0
  2  3  1  0  0  0
  2 19  1  0  0  0
  2 38  1  0  0  0
  3  4  1  0  0  0
  3 20  1  0  0  0
  3 21  1  0  0  0
  4  5  1  0  0  0
  4  6  1  0  0  0
  4 22  1  0  0  0
  5  6  1  0  0  0
  5 23  1  0  0  0
  5 24  1  0  0  0
  6 25  1  0  0  0
  6 26  1  0  0  0
  7  8  1  0  0  0
  7  9  1  0  0  0
  7 10  1  0  0  0
  7 38  1  0  0  0
  8 27  1  0  0  0
  8 28  1  0  0  0
  8 29  1  0  0  0
  9 30  1  0  0  0
  9 31  1  0  0  0
  9 32  1  0  0  0
 10 11  2  0  0  0
 10 15  1  0  0  0
 11 12  1  0  0  0
 11 33  1  0  0  0
 12 13  2  0  0  0
 12 34  1  0  0  0
 13 14  1  0  0  0
 13 35  1  0  0  0
 14 15  2  0  0  0
 14 36  1  0  0  0
 15 37  1  0  0  0
 38 39  1  0  0  0
 38 40  1  0  0  0
M  CHG  1  38   1
M  END
> <energy>
65.2319

> <chiral flag>
0

> <version>
0

> <i_ionizer_Ion_state_n>
1

> <i_ionizer_Tot_Q>
1

> <s_ionizer_Ion_centers>
38

> <s_ionizer_Ion_types>
N5

> <s_ionizer_Ion_ctrs_in>
7

> <r_ionizer_Ionization_penalty>
0.000148807

> <r_ionizer_Ionization_penalty_charging>
0.000148807

> <r_ionizer_Ionization_penalty_neutral>
0

$$$$
ZINC001258448278
                    3D
 Structure written by MMmdl.
 40 41  0  0  1  0            999 V2000
   -2.9219    0.3700   -1.3045 C   0  0  0  0  0  0
   -1.9710    0.3442   -0.1031 C   0  0  2  0  0  0
   -2.5045   -0.5468    1.0342 C   0  0  0  0  0  0
   -2.6545   -1.9904    0.6263 C   0  0  0  0  0  0
   -2.3081   -3.0901    1.5993 C   0  0  0  0  0  0
   -1.4481   -2.8640    0.3860 C   0  0  0  0  0  0
   -0.5810    2.3485   -0.1259 C   0  0  0  0  0  0
    0.6249    2.0563    0.7723 C   0  0  0  0  0  0
    1.9524    2.3746    0.0688 C   0  0  0  0  0  0
    2.6897    1.1072   -0.3056 C   0  0  0  0  0  0
    3.7764    0.6693    0.4689 C   0  0  0  0  0  0
    4.4152   -0.5358    0.1730 C   0  0  0  0  0  0
    3.9640   -1.3058   -0.8920 C   0  0  0  0  0  0
    4.5627   -2.4733   -1.1618 F   0  0  0  0  0  0
    2.8981   -0.8836   -1.6792 C   0  0  0  0  0  0
    2.2612    0.3238   -1.3889 C   0  0  0  0  0  0
   -3.9240    0.7071   -1.0156 H   0  0  0  0  0  0
   -3.0188   -0.6250   -1.7519 H   0  0  0  0  0  0
   -2.5493    1.0430   -2.0859 H   0  0  0  0  0  0
   -1.0103   -0.0719   -0.4326 H   0  0  0  0  0  0
   -3.4783   -0.1807    1.3870 H   0  0  0  0  0  0
   -1.8134   -0.4817    1.8870 H   0  0  0  0  0  0
   -3.5236   -2.1512   -0.0034 H   0  0  0  0  0  0
   -2.9505   -3.9633    1.6210 H   0  0  0  0  0  0
   -1.8934   -2.8221    2.5657 H   0  0  0  0  0  0
   -0.4593   -2.4433    0.5354 H   0  0  0  0  0  0
   -1.4997   -3.5920   -0.4158 H   0  0  0  0  0  0
   -0.7353    3.4339   -0.1429 H   0  0  0  0  0  0
   -0.4092    2.0530   -1.1656 H   0  0  0  0  0  0
    0.6101    1.0196    1.1308 H   0  0  0  0  0  0
    0.5404    2.6860    1.6677 H   0  0  0  0  0  0
    2.5819    2.9718    0.7411 H   0  0  0  0  0  0
    1.8079    2.9928   -0.8273 H   0  0  0  0  0  0
    4.1247    1.2590    1.3149 H   0  0  0  0  0  0
    5.2516   -0.8828    0.7710 H   0  0  0  0  0  0
    2.5664   -1.5013   -2.5062 H   0  0  0  0  0  0
    1.4219    0.6421   -2.0028 H   0  0  0  0  0  0
   -1.8022    1.7276    0.4204 N   0  3  0  0  0  0
   -2.6165    2.2916    0.1501 H   0  0  0  0  0  0
   -1.7337    1.6941    1.4443 H   0  0  0  0  0  0
  1  2  1  0  0  0
  1 17  1  0  0  0
  1 18  1  0  0  0
  1 19  1  0  0  0
  2  3  1  0  0  0
  2 20  1  0  0  0
  2 38  1  0  0  0
  3  4  1  0  0  0
  3 21  1  0  0  0
  3 22  1  0  0  0
  4  5  1  0  0  0
  4  6  1  0  0  0
  4 23  1  0  0  0
  5  6  1  0  0  0
  5 24  1  0  0  0
  5 25  1  0  0  0
  6 26  1  0  0  0
  6 27  1  0  0  0
  7  8  1  0  0  0
  7 28  1  0  0  0
  7 29  1  0  0  0
  7 38  1  0  0  0
  8  9  1  0  0  0
  8 30  1  0  0  0
  8 31  1  0  0  0
  9 10  1  0  0  0
  9 32  1  0  0  0
  9 33  1  0  0  0
 10 11  2  0  0  0
 10 16  1  0  0  0
 11 12  1  0  0  0
 11 34  1  0  0  0
 12 13  2  0  0  0
 12 35  1  0  0  0
 13 14  1  0  0  0
 13 15  1  0  0  0
 15 16  2  0  0  0
 15 36  1  0  0  0
 16 37  1  0  0  0
 38 39  1  0  0  0
 38 40  1  0  0  0
M  CHG  1  38   1
M  END
> <energy>
49.1149

> <chiral flag>
0

> <version>
0

> <i_ionizer_Ion_state_n>
1

> <i_ionizer_Tot_Q>
1

> <s_ionizer_Ion_centers>
38

> <s_ionizer_Ion_types>
N5

> <s_ionizer_Ion_ctrs_in>
7

> <r_ionizer_Ionization_penalty>
0.000148807

> <r_ionizer_Ionization_penalty_charging>
0.000148807

> <r_ionizer_Ionization_penalty_neutral>
0

$$$$
ZINC001258448281
                    3D
 Structure written by MMmdl.
 40 41  0  0  1  0            999 V2000
   -2.8464    1.6365    1.1833 C   0  0  0  0  0  0
   -1.8835    0.9704    0.1976 C   0  0  1  0  0  0
   -2.6439    0.0684   -0.7998 C   0  0  0  0  0  0
   -3.0617   -1.2436   -0.1958 C   0  0  0  0  0  0
   -3.3921   -2.4029   -1.1010 C   0  0  0  0  0  0
   -2.1451   -2.4386   -0.2613 C   0  0  0  0  0  0
    0.1898    1.6813   -0.8801 C   0  0  0  0  0  0
    1.1615    2.1465    0.2100 C   0  0  0  0  0  0
    2.6211    1.8161   -0.1161 C   0  0  0  0  0  0
    2.9714    0.3790    0.1863 C   0  0  0  0  0  0
    3.3027   -0.0003    1.4976 C   0  0  0  0  0  0
    3.6031   -1.3288    1.7948 C   0  0  0  0  0  0
    3.5662   -2.2803    0.7833 C   0  0  0  0  0  0
    3.8460   -3.5583    1.0692 F   0  0  0  0  0  0
    3.2402   -1.9268   -0.5210 C   0  0  0  0  0  0
    2.9459   -0.5956   -0.8219 C   0  0  0  0  0  0
   -3.3632    0.8893    1.7957 H   0  0  0  0  0  0
   -2.3048    2.2994    1.8687 H   0  0  0  0  0  0
   -3.6080    2.2327    0.6666 H   0  0  0  0  0  0
   -1.1738    0.3724    0.7837 H   0  0  0  0  0  0
   -3.5373    0.5846   -1.1752 H   0  0  0  0  0  0
   -2.0112   -0.1316   -1.6748 H   0  0  0  0  0  0
   -3.6836   -1.1233    0.6836 H   0  0  0  0  0  0
   -4.2170   -3.0476   -0.8196 H   0  0  0  0  0  0
   -3.2802   -2.2700   -2.1713 H   0  0  0  0  0  0
   -2.1235   -3.1115    0.5884 H   0  0  0  0  0  0
   -1.1902   -2.3365   -0.7652 H   0  0  0  0  0  0
    0.2789    0.6086   -1.0851 H   0  0  0  0  0  0
    0.4473    2.1964   -1.8141 H   0  0  0  0  0  0
    0.8821    1.7231    1.1833 H   0  0  0  0  0  0
    1.0750    3.2362    0.3058 H   0  0  0  0  0  0
    2.8545    2.0552   -1.1613 H   0  0  0  0  0  0
    3.2750    2.4612    0.4857 H   0  0  0  0  0  0
    3.3246    0.7419    2.2937 H   0  0  0  0  0  0
    3.8594   -1.6269    2.8059 H   0  0  0  0  0  0
    3.2179   -2.6881   -1.2937 H   0  0  0  0  0  0
    2.6874   -0.3257   -1.8433 H   0  0  0  0  0  0
   -1.1898    2.0699   -0.5228 N   0  3  0  0  0  0
   -1.7095    2.2897   -1.3806 H   0  0  0  0  0  0
   -1.1591    2.8999    0.0809 H   0  0  0  0  0  0
  1  2  1  0  0  0
  1 17  1  0  0  0
  1 18  1  0  0  0
  1 19  1  0  0  0
  2  3  1  0  0  0
  2 20  1  0  0  0
  2 38  1  0  0  0
  3  4  1  0  0  0
  3 21  1  0  0  0
  3 22  1  0  0  0
  4  5  1  0  0  0
  4  6  1  0  0  0
  4 23  1  0  0  0
  5  6  1  0  0  0
  5 24  1  0  0  0
  5 25  1  0  0  0
  6 26  1  0  0  0
  6 27  1  0  0  0
  7  8  1  0  0  0
  7 28  1  0  0  0
  7 29  1  0  0  0
  7 38  1  0  0  0
  8  9  1  0  0  0
  8 30  1  0  0  0
  8 31  1  0  0  0
  9 10  1  0  0  0
  9 32  1  0  0  0
  9 33  1  0  0  0
 10 11  2  0  0  0
 10 16  1  0  0  0
 11 12  1  0  0  0
 11 34  1  0  0  0
 12 13  2  0  0  0
 12 35  1  0  0  0
 13 14  1  0  0  0
 13 15  1  0  0  0
 15 16  2  0  0  0
 15 36  1  0  0  0
 16 37  1  0  0  0
 38 39  1  0  0  0
 38 40  1  0  0  0
M  CHG  1  38   1
M  END
> <energy>
45.4587

> <chiral flag>
0

> <version>
0

> <i_ionizer_Ion_state_n>
1

> <i_ionizer_Tot_Q>
1

> <s_ionizer_Ion_centers>
38

> <s_ionizer_Ion_types>
N5

> <s_ionizer_Ion_ctrs_in>
7

> <r_ionizer_Ionization_penalty>
0.000148807

> <r_ionizer_Ionization_penalty_charging>
0.000148807

> <r_ionizer_Ionization_penalty_neutral>
0

$$$$
ZINC001258448286
                    3D
 Structure written by MMmdl.
 49 49  0  0  1  0            999 V2000
   -5.0406    1.7027   -1.9897 C   0  0  0  0  0  0
   -4.7783    0.8670   -0.7483 C   0  0  0  0  0  0
   -3.4352    0.1414   -0.7804 C   0  0  0  0  0  0
   -2.2264    1.0711   -0.6038 C   0  0  0  0  0  0
   -0.9311    0.2506   -0.5649 C   0  0  0  0  0  0
    0.3472    1.0829   -0.2589 C   0  0  2  0  0  0
    0.8067    1.8814   -1.5128 C   0  0  0  0  0  0
    1.9904    2.8048   -1.2380 C   0  0  0  0  0  0
    1.7658   -0.9027   -0.5646 C   0  0  0  0  0  0
    2.8965   -1.7776   -0.0450 C   0  0  0  0  0  0
    2.5544   -2.3032    1.3435 C   0  0  2  0  0  0
    1.3655   -3.1005    1.3695 O   0  0  0  0  0  0
    1.5071   -4.3726    0.7519 C   0  0  0  0  0  0
    2.3393   -1.1033    2.2577 C   0  0  0  0  0  0
    1.2865   -0.1037    1.7232 C   0  0  1  0  0  0
    1.3863    1.1325    2.6424 C   0  0  0  0  0  0
   -4.3265    2.5244   -2.0797 H   0  0  0  0  0  0
   -4.9830    1.0941   -2.8982 H   0  0  0  0  0  0
   -6.0423    2.1407   -1.9462 H   0  0  0  0  0  0
   -4.8415    1.5036    0.1380 H   0  0  0  0  0  0
   -5.5793    0.1240   -0.6612 H   0  0  0  0  0  0
   -3.3416   -0.4210   -1.7176 H   0  0  0  0  0  0
   -3.4330   -0.5972    0.0318 H   0  0  0  0  0  0
   -2.1874    1.8011   -1.4169 H   0  0  0  0  0  0
   -2.3322    1.6271    0.3355 H   0  0  0  0  0  0
   -0.8149   -0.2708   -1.5216 H   0  0  0  0  0  0
   -1.0604   -0.5206    0.2028 H   0  0  0  0  0  0
    0.0741    1.8457    0.4769 H   0  0  0  0  0  0
    1.0564    1.2086   -2.3406 H   0  0  0  0  0  0
   -0.0220    2.5007   -1.8744 H   0  0  0  0  0  0
    2.8907    2.2271   -1.0074 H   0  0  0  0  0  0
    2.1988    3.4269   -2.1146 H   0  0  0  0  0  0
    1.7856    3.4736   -0.3967 H   0  0  0  0  0  0
    2.0563   -0.5591   -1.5622 H   0  0  0  0  0  0
    0.8842   -1.5344   -0.6930 H   0  0  0  0  0  0
    3.8278   -1.1983   -0.0111 H   0  0  0  0  0  0
    3.0610   -2.6063   -0.7411 H   0  0  0  0  0  0
    3.3931   -2.8954    1.7384 H   0  0  0  0  0  0
    0.6264   -4.9681    1.0064 H   0  0  0  0  0  0
    1.5513   -4.2744   -0.3371 H   0  0  0  0  0  0
    2.3959   -4.9003    1.1180 H   0  0  0  0  0  0
    3.3013   -0.5962    2.4146 H   0  0  0  0  0  0
    2.0011   -1.4606    3.2399 H   0  0  0  0  0  0
    0.2998   -0.5596    1.8677 H   0  0  0  0  0  0
    1.4066    0.8284    3.6974 H   0  0  0  0  0  0
    0.5324    1.8038    2.5274 H   0  0  0  0  0  0
    2.3091    1.6978    2.4505 H   0  0  0  0  0  0
    1.5227    0.3001    0.2800 N   0  3  2  0  0  0
    2.3563    0.8984    0.2432 H   0  0  0  0  0  0
  1  2  1  0  0  0
  1 17  1  0  0  0
  1 18  1  0  0  0
  1 19  1  0  0  0
  2  3  1  0  0  0
  2 20  1  0  0  0
  2 21  1  0  0  0
  3  4  1  0  0  0
  3 22  1  0  0  0
  3 23  1  0  0  0
  4  5  1  0  0  0
  4 24  1  0  0  0
  4 25  1  0  0  0
  5  6  1  0  0  0
  5 26  1  0  0  0
  5 27  1  0  0  0
  6  7  1  0  0  0
  6 28  1  0  0  0
  6 48  1  0  0  0
  7  8  1  0  0  0
  7 29  1  0  0  0
  7 30  1  0  0  0
  8 31  1  0  0  0
  8 32  1  0  0  0
  8 33  1  0  0  0
  9 10  1  0  0  0
  9 34  1  0  0  0
  9 35  1  0  0  0
  9 48  1  0  0  0
 10 11  1  0  0  0
 10 36  1  0  0  0
 10 37  1  0  0  0
 11 12  1  0  0  0
 11 14  1  0  0  0
 11 38  1  0  0  0
 12 13  1  0  0  0
 13 39  1  0  0  0
 13 40  1  0  0  0
 13 41  1  0  0  0
 14 15  1  0  0  0
 14 42  1  0  0  0
 14 43  1  0  0  0
 15 16  1  0  0  0
 15 44  1  0  0  0
 15 48  1  0  0  0
 16 45  1  0  0  0
 16 46  1  0  0  0
 16 47  1  0  0  0
 48 49  1  0  0  0
M  CHG  1  48   1
M  END
> <energy>
15.8479

> <chiral flag>
0

> <version>
0

> <i_ionizer_Ion_state_n>
1

> <i_ionizer_Tot_Q>
1

> <s_ionizer_Ion_centers>
48

> <s_ionizer_Ion_types>
N5

> <s_ionizer_Ion_ctrs_in>
9

> <r_ionizer_Ionization_penalty>
0.00148639

> <r_ionizer_Ionization_penalty_charging>
0.00148639

> <r_ionizer_Ionization_penalty_neutral>
0

$$$$
ZINC001258448288
                    3D
 Structure written by MMmdl.
 49 49  0  0  1  0            999 V2000
   -4.9264   -2.2197    0.5868 C   0  0  0  0  0  0
   -3.5818   -1.7605    0.0439 C   0  0  0  0  0  0
   -2.9866   -0.6381    0.8951 C   0  0  0  0  0  0
   -1.6767   -0.1214    0.2924 C   0  0  0  0  0  0
   -1.0223    0.9404    1.1824 C   0  0  0  0  0  0
    0.0093    1.8896    0.5145 C   0  0  2  0  0  0
   -0.6681    2.7404   -0.5887 C   0  0  0  0  0  0
    0.0924    4.0197   -0.9204 C   0  0  0  0  0  0
    2.2098    0.9491    1.1847 C   0  0  0  0  0  0
    2.1631   -0.5190    1.6033 C   0  0  0  0  0  0
    2.0808   -1.4879    0.4199 C   0  0  2  0  0  0
    3.0536   -2.5206    0.6398 O   0  0  0  0  0  0
    2.8647   -3.6716   -0.1738 C   0  0  0  0  0  0
    2.3221   -0.7653   -0.9008 C   0  0  0  0  0  0
    1.3718    0.4377   -1.0792 C   0  0  2  0  0  0
    1.8627    1.2272   -2.3022 C   0  0  0  0  0  0
   -5.3179   -3.0511   -0.0088 H   0  0  0  0  0  0
   -4.8425   -2.5592    1.6245 H   0  0  0  0  0  0
   -5.6573   -1.4047    0.5496 H   0  0  0  0  0  0
   -3.7145   -1.4178   -0.9889 H   0  0  0  0  0  0
   -2.8909   -2.6108    0.0170 H   0  0  0  0  0  0
   -3.7041    0.1893    0.9607 H   0  0  0  0  0  0
   -2.8129   -0.9980    1.9159 H   0  0  0  0  0  0
   -1.8913    0.2828   -0.7011 H   0  0  0  0  0  0
   -0.9881   -0.9635    0.1677 H   0  0  0  0  0  0
   -0.5741    0.4501    2.0522 H   0  0  0  0  0  0
   -1.8137    1.5766    1.6011 H   0  0  0  0  0  0
    0.2523    2.6182    1.3034 H   0  0  0  0  0  0
   -1.6704    3.0359   -0.2559 H   0  0  0  0  0  0
   -0.8174    2.1574   -1.5029 H   0  0  0  0  0  0
   -0.4152    4.5511   -1.7322 H   0  0  0  0  0  0
    0.1256    4.6852   -0.0523 H   0  0  0  0  0  0
    1.1199    3.8266   -1.2362 H   0  0  0  0  0  0
    3.2312    1.1747    0.8468 H   0  0  0  0  0  0
    2.0655    1.5889    2.0641 H   0  0  0  0  0  0
    3.0449   -0.7311    2.2210 H   0  0  0  0  0  0
    1.3074   -0.6974    2.2636 H   0  0  0  0  0  0
    1.0834   -1.9450    0.4174 H   0  0  0  0  0  0
    1.8531   -4.0721   -0.0548 H   0  0  0  0  0  0
    3.5787   -4.4357    0.1471 H   0  0  0  0  0  0
    3.0637   -3.4470   -1.2253 H   0  0  0  0  0  0
    3.3736   -0.4529   -0.9599 H   0  0  0  0  0  0
    2.1765   -1.4575   -1.7378 H   0  0  0  0  0  0
    0.3856    0.0312   -1.3213 H   0  0  0  0  0  0
    2.8024    1.7502   -2.0844 H   0  0  0  0  0  0
    2.0457    0.5513   -3.1452 H   0  0  0  0  0  0
    1.1316    1.9642   -2.6409 H   0  0  0  0  0  0
    1.3930    1.4449    0.0496 N   0  3  1  0  0  0
    1.8613    2.2827   -0.3149 H   0  0  0  0  0  0
  1  2  1  0  0  0
  1 17  1  0  0  0
  1 18  1  0  0  0
  1 19  1  0  0  0
  2  3  1  0  0  0
  2 20  1  0  0  0
  2 21  1  0  0  0
  3  4  1  0  0  0
  3 22  1  0  0  0
  3 23  1  0  0  0
  4  5  1  0  0  0
  4 24  1  0  0  0
  4 25  1  0  0  0
  5  6  1  0  0  0
  5 26  1  0  0  0
  5 27  1  0  0  0
  6  7  1  0  0  0
  6 28  1  0  0  0
  6 48  1  0  0  0
  7  8  1  0  0  0
  7 29  1  0  0  0
  7 30  1  0  0  0
  8 31  1  0  0  0
  8 32  1  0  0  0
  8 33  1  0  0  0
  9 10  1  0  0  0
  9 34  1  0  0  0
  9 35  1  0  0  0
  9 48  1  0  0  0
 10 11  1  0  0  0
 10 36  1  0  0  0
 10 37  1  0  0  0
 11 12  1  0  0  0
 11 14  1  0  0  0
 11 38  1  0  0  0
 12 13  1  0  0  0
 13 39  1  0  0  0
 13 40  1  0  0  0
 13 41  1  0  0  0
 14 15  1  0  0  0
 14 42  1  0  0  0
 14 43  1  0  0  0
 15 16  1  0  0  0
 15 44  1  0  0  0
 15 48  1  0  0  0
 16 45  1  0  0  0
 16 46  1  0  0  0
 16 47  1  0  0  0
 48 49  1  0  0  0
M  CHG  1  48   1
M  END
> <energy>
24.6783

> <chiral flag>
0

> <version>
0

> <i_ionizer_Ion_state_n>
1

> <i_ionizer_Tot_Q>
1

> <s_ionizer_Ion_centers>
48

> <s_ionizer_Ion_types>
N5

> <s_ionizer_Ion_ctrs_in>
9

> <r_ionizer_Ionization_penalty>
0.00148639

> <r_ionizer_Ionization_penalty_charging>
0.00148639

> <r_ionizer_Ionization_penalty_neutral>
0

$$$$
ZINC001258448289
                    3D
 Structure written by MMmdl.
 49 49  0  0  1  0            999 V2000
   -4.9066   -1.1695   -0.5579 C   0  0  0  0  0  0
   -4.2246    0.1702   -0.3263 C   0  0  0  0  0  0
   -3.1825    0.0793    0.7879 C   0  0  0  0  0  0
   -2.4210    1.3818    1.0174 C   0  0  0  0  0  0
   -1.5487    1.9160   -0.1217 C   0  0  0  0  0  0
   -0.3706    1.0799   -0.6917 C   0  0  2  0  0  0
   -0.8338   -0.0350   -1.6607 C   0  0  0  0  0  0
    0.2544   -0.4878   -2.6278 C   0  0  0  0  0  0
    1.8423    1.5109    0.3756 C   0  0  0  0  0  0
    3.0973    0.7213    0.7471 C   0  0  0  0  0  0
    3.0551   -0.6575    0.1037 C   0  0  1  0  0  0
    4.2386   -1.4061    0.4117 O   0  0  0  0  0  0
    5.3114   -1.1353   -0.4824 C   0  0  0  0  0  0
    1.8455   -1.4507    0.6155 C   0  0  0  0  0  0
    0.6236   -0.5848    0.9866 C   0  0  1  0  0  0
    0.5469   -0.4130    2.5139 C   0  0  0  0  0  0
   -5.6559   -1.0834   -1.3510 H   0  0  0  0  0  0
   -4.1781   -1.9299   -0.8581 H   0  0  0  0  0  0
   -5.4108   -1.5157    0.3494 H   0  0  0  0  0  0
   -3.7659    0.4955   -1.2635 H   0  0  0  0  0  0
   -4.9802    0.9186   -0.0625 H   0  0  0  0  0  0
   -2.4922   -0.7448    0.5998 H   0  0  0  0  0  0
   -3.6967   -0.1810    1.7211 H   0  0  0  0  0  0
   -3.1567    2.1609    1.2607 H   0  0  0  0  0  0
   -1.8109    1.2873    1.9171 H   0  0  0  0  0  0
   -1.1226    2.8641    0.2381 H   0  0  0  0  0  0
   -2.2007    2.2087   -0.9551 H   0  0  0  0  0  0
    0.1166    1.8009   -1.3651 H   0  0  0  0  0  0
   -1.2210   -0.9093   -1.1338 H   0  0  0  0  0  0
   -1.6632    0.3451   -2.2693 H   0  0  0  0  0  0
    0.6643    0.3602   -3.1841 H   0  0  0  0  0  0
   -0.1593   -1.1975   -3.3506 H   0  0  0  0  0  0
    1.0728   -0.9890   -2.1125 H   0  0  0  0  0  0
    2.0404    1.9722   -0.6011 H   0  0  0  0  0  0
    1.7132    2.3368    1.0848 H   0  0  0  0  0  0
    3.9848    1.2770    0.4258 H   0  0  0  0  0  0
    3.2067    0.6219    1.8329 H   0  0  0  0  0  0
    2.9719   -0.5540   -0.9856 H   0  0  0  0  0  0
    5.5480   -0.0690   -0.5091 H   0  0  0  0  0  0
    6.1949   -1.6762   -0.1335 H   0  0  0  0  0  0
    5.0640   -1.4887   -1.4888 H   0  0  0  0  0  0
    1.5609   -2.1681   -0.1655 H   0  0  0  0  0  0
    2.1447   -2.0764    1.4682 H   0  0  0  0  0  0
   -0.2683   -1.1630    0.7273 H   0  0  0  0  0  0
    0.5279   -1.3900    3.0077 H   0  0  0  0  0  0
    1.3892    0.1493    2.9254 H   0  0  0  0  0  0
   -0.3653    0.1048    2.8130 H   0  0  0  0  0  0
    0.5144    0.8555    0.5242 N   0  3  2  0  0  0
    0.0464    1.3488    1.2936 H   0  0  0  0  0  0
  1  2  1  0  0  0
  1 17  1  0  0  0
  1 18  1  0  0  0
  1 19  1  0  0  0
  2  3  1  0  0  0
  2 20  1  0  0  0
  2 21  1  0  0  0
  3  4  1  0  0  0
  3 22  1  0  0  0
  3 23  1  0  0  0
  4  5  1  0  0  0
  4 24  1  0  0  0
  4 25  1  0  0  0
  5  6  1  0  0  0
  5 26  1  0  0  0
  5 27  1  0  0  0
  6  7  1  0  0  0
  6 28  1  0  0  0
  6 48  1  0  0  0
  7  8  1  0  0  0
  7 29  1  0  0  0
  7 30  1  0  0  0
  8 31  1  0  0  0
  8 32  1  0  0  0
  8 33  1  0  0  0
  9 10  1  0  0  0
  9 34  1  0  0  0
  9 35  1  0  0  0
  9 48  1  0  0  0
 10 11  1  0  0  0
 10 36  1  0  0  0
 10 37  1  0  0  0
 11 12  1  0  0  0
 11 14  1  0  0  0
 11 38  1  0  0  0
 12 13  1  0  0  0
 13 39  1  0  0  0
 13 40  1  0  0  0
 13 41  1  0  0  0
 14 15  1  0  0  0
 14 42  1  0  0  0
 14 43  1  0  0  0
 15 16  1  0  0  0
 15 44  1  0  0  0
 15 48  1  0  0  0
 16 45  1  0  0  0
 16 46  1  0  0  0
 16 47  1  0  0  0
 48 49  1  0  0  0
M  CHG  1  48   1
M  END
> <energy>
33.5059

> <chiral flag>
0

> <version>
0

> <i_ionizer_Ion_state_n>
1

> <i_ionizer_Tot_Q>
1

> <s_ionizer_Ion_centers>
48

> <s_ionizer_Ion_types>
N5

> <s_ionizer_Ion_ctrs_in>
9

> <r_ionizer_Ionization_penalty>
0.00148639

> <r_ionizer_Ionization_penalty_charging>
0.00148639

> <r_ionizer_Ionization_penalty_neutral>
0

$$$$
ZINC001258448291
                    3D
 Structure written by MMmdl.
 49 49  0  0  1  0            999 V2000
   -4.9390    2.6979   -0.4412 C   0  0  0  0  0  0
   -4.1641    1.4909    0.0659 C   0  0  0  0  0  0
   -2.7141    1.8596    0.3813 C   0  0  0  0  0  0
   -1.8754    0.6915    0.9112 C   0  0  0  0  0  0
   -1.7503   -0.4611   -0.0954 C   0  0  0  0  0  0
   -0.6228   -1.4651    0.2525 C   0  0  1  0  0  0
   -0.8817   -2.8705   -0.3497 C   0  0  0  0  0  0
   -0.8482   -2.9924   -1.8617 C   0  0  0  0  0  0
    1.4460   -1.0164    1.4086 C   0  0  0  0  0  0
    2.9423   -0.7466    1.3812 C   0  0  0  0  0  0
    3.2182    0.5576    0.6544 C   0  0  1  0  0  0
    4.6223    0.8058    0.5229 O   0  0  0  0  0  0
    5.2471    1.2195    1.7290 C   0  0  0  0  0  0
    2.6449    0.4432   -0.7481 C   0  0  0  0  0  0
    1.1399    0.0839   -0.7774 C   0  0  1  0  0  0
    0.8253   -0.1331   -2.2672 C   0  0  0  0  0  0
   -4.5001    3.0846   -1.3667 H   0  0  0  0  0  0
   -4.9410    3.5026    0.3000 H   0  0  0  0  0  0
   -5.9774    2.4220   -0.6482 H   0  0  0  0  0  0
   -4.2062    0.7067   -0.6979 H   0  0  0  0  0  0
   -4.6525    1.0992    0.9654 H   0  0  0  0  0  0
   -2.7029    2.6600    1.1319 H   0  0  0  0  0  0
   -2.2339    2.2666   -0.5167 H   0  0  0  0  0  0
   -2.3197    0.3132    1.8402 H   0  0  0  0  0  0
   -0.8887    1.0823    1.1786 H   0  0  0  0  0  0
   -2.7057   -1.0029   -0.0949 H   0  0  0  0  0  0
   -1.6462   -0.0636   -1.1040 H   0  0  0  0  0  0
   -0.7843   -1.6487    1.3264 H   0  0  0  0  0  0
   -1.8648   -3.2175   -0.0034 H   0  0  0  0  0  0
   -0.1581   -3.5802    0.0720 H   0  0  0  0  0  0
   -1.5358   -2.2900   -2.3389 H   0  0  0  0  0  0
   -1.1506   -4.0030   -2.1562 H   0  0  0  0  0  0
    0.1595   -2.8357   -2.2511 H   0  0  0  0  0  0
    1.3060   -1.9746    1.9259 H   0  0  0  0  0  0
    0.9624   -0.2436    2.0213 H   0  0  0  0  0  0
    3.3205   -0.7082    2.4089 H   0  0  0  0  0  0
    3.4759   -1.5756    0.8970 H   0  0  0  0  0  0
    2.7479    1.4039    1.1717 H   0  0  0  0  0  0
    6.2875    1.4716    1.5043 H   0  0  0  0  0  0
    5.2456    0.4127    2.4658 H   0  0  0  0  0  0
    4.7542    2.1073    2.1358 H   0  0  0  0  0  0
    3.2264   -0.3023   -1.3096 H   0  0  0  0  0  0
    2.8113    1.3920   -1.2764 H   0  0  0  0  0  0
    0.5958    0.9677   -0.4281 H   0  0  0  0  0  0
    1.0852    0.7634   -2.8430 H   0  0  0  0  0  0
    1.4127   -0.9614   -2.6802 H   0  0  0  0  0  0
   -0.2237   -0.3332   -2.4730 H   0  0  0  0  0  0
    0.8495   -1.1618    0.0734 N   0  3  2  0  0  0
    1.2832   -1.9653   -0.3963 H   0  0  0  0  0  0
  1  2  1  0  0  0
  1 17  1  0  0  0
  1 18  1  0  0  0
  1 19  1  0  0  0
  2  3  1  0  0  0
  2 20  1  0  0  0
  2 21  1  0  0  0
  3  4  1  0  0  0
  3 22  1  0  0  0
  3 23  1  0  0  0
  4  5  1  0  0  0
  4 24  1  0  0  0
  4 25  1  0  0  0
  5  6  1  0  0  0
  5 26  1  0  0  0
  5 27  1  0  0  0
  6  7  1  0  0  0
  6 28  1  0  0  0
  6 48  1  0  0  0
  7  8  1  0  0  0
  7 29  1  0  0  0
  7 30  1  0  0  0
  8 31  1  0  0  0
  8 32  1  0  0  0
  8 33  1  0  0  0
  9 10  1  0  0  0
  9 34  1  0  0  0
  9 35  1  0  0  0
  9 48  1  0  0  0
 10 11  1  0  0  0
 10 36  1  0  0  0
 10 37  1  0  0  0
 11 12  1  0  0  0
 11 14  1  0  0  0
 11 38  1  0  0  0
 12 13  1  0  0  0
 13 39  1  0  0  0
 13 40  1  0  0  0
 13 41  1  0  0  0
 14 15  1  0  0  0
 14 42  1  0  0  0
 14 43  1  0  0  0
 15 16  1  0  0  0
 15 44  1  0  0  0
 15 48  1  0  0  0
 16 45  1  0  0  0
 16 46  1  0  0  0
 16 47  1  0  0  0
 48 49  1  0  0  0
M  CHG  1  48   1
M  END
> <energy>
22.2994

> <chiral flag>
0

> <version>
0

> <i_ionizer_Ion_state_n>
1

> <i_ionizer_Tot_Q>
1

> <s_ionizer_Ion_centers>
48

> <s_ionizer_Ion_types>
N5

> <s_ionizer_Ion_ctrs_in>
9

> <r_ionizer_Ionization_penalty>
0.00148639

> <r_ionizer_Ionization_penalty_charging>
0.00148639

> <r_ionizer_Ionization_penalty_neutral>
0

$$$$
ZINC001258448292
                    3D
 Structure written by MMmdl.
 49 49  0  0  1  0            999 V2000
    4.4820   -2.2240    0.6294 C   0  0  0  0  0  0
    4.7701   -0.8271    1.1607 C   0  0  0  0  0  0
    3.5145   -0.0503    1.5695 C   0  0  0  0  0  0
    2.5861    0.2816    0.3954 C   0  0  0  0  0  0
    1.3891    1.1338    0.8541 C   0  0  0  0  0  0
    0.3411    1.3946   -0.2698 C   0  0  2  0  0  0
   -0.3156    2.7855   -0.0245 C   0  0  0  0  0  0
   -1.1908    2.8639    1.2216 C   0  0  0  0  0  0
   -0.4233   -1.0184   -0.1377 C   0  0  0  0  0  0
   -1.7129   -1.7418    0.2756 C   0  0  0  0  0  0
   -2.9001   -1.4652   -0.6551 C   0  0  1  0  0  0
   -3.9032   -0.6626   -0.0185 O   0  0  0  0  0  0
   -4.7264   -1.3929    0.8798 C   0  0  0  0  0  0
   -2.4442   -0.7358   -1.9113 C   0  0  0  0  0  0
   -1.6321    0.5413   -1.5932 C   0  0  2  0  0  0
   -0.9612    0.9855   -2.9048 C   0  0  0  0  0  0
    3.9059   -2.8089    1.3528 H   0  0  0  0  0  0
    5.4205   -2.7533    0.4356 H   0  0  0  0  0  0
    3.9248   -2.1906   -0.3104 H   0  0  0  0  0  0
    5.3307   -0.2603    0.4081 H   0  0  0  0  0  0
    5.4231   -0.9204    2.0377 H   0  0  0  0  0  0
    3.8313    0.8832    2.0515 H   0  0  0  0  0  0
    2.9646   -0.6250    2.3238 H   0  0  0  0  0  0
    2.2470   -0.6411   -0.0808 H   0  0  0  0  0  0
    3.1505    0.8371   -0.3637 H   0  0  0  0  0  0
    1.8008    2.0919    1.1996 H   0  0  0  0  0  0
    0.9065    0.6870    1.7320 H   0  0  0  0  0  0
    0.9228    1.4688   -1.1951 H   0  0  0  0  0  0
   -0.9217    3.0844   -0.8872 H   0  0  0  0  0  0
    0.4705    3.5474    0.0485 H   0  0  0  0  0  0
   -1.6342    3.8617    1.3024 H   0  0  0  0  0  0
   -0.6097    2.6809    2.1296 H   0  0  0  0  0  0
   -2.0122    2.1422    1.1852 H   0  0  0  0  0  0
    0.0523   -1.5205   -0.9893 H   0  0  0  0  0  0
    0.2541   -1.1367    0.7116 H   0  0  0  0  0  0
   -1.9561   -1.4601    1.3067 H   0  0  0  0  0  0
   -1.5028   -2.8198    0.2825 H   0  0  0  0  0  0
   -3.3611   -2.4139   -0.9586 H   0  0  0  0  0  0
   -4.1335   -1.8630    1.6701 H   0  0  0  0  0  0
   -5.4263   -0.6919    1.3445 H   0  0  0  0  0  0
   -5.2999   -2.1529    0.3386 H   0  0  0  0  0  0
   -1.8443   -1.4232   -2.5236 H   0  0  0  0  0  0
   -3.3222   -0.4552   -2.5094 H   0  0  0  0  0  0
   -2.3574    1.3142   -1.3132 H   0  0  0  0  0  0
   -0.5074    1.9780   -2.8312 H   0  0  0  0  0  0
   -0.1815    0.2783   -3.2088 H   0  0  0  0  0  0
   -1.6995    1.0416   -3.7148 H   0  0  0  0  0  0
   -0.8289    0.4012   -0.3304 N   0  3  2  0  0  0
   -1.4518    0.6386    0.4506 H   0  0  0  0  0  0
  1  2  1  0  0  0
  1 17  1  0  0  0
  1 18  1  0  0  0
  1 19  1  0  0  0
  2  3  1  0  0  0
  2 20  1  0  0  0
  2 21  1  0  0  0
  3  4  1  0  0  0
  3 22  1  0  0  0
  3 23  1  0  0  0
  4  5  1  0  0  0
  4 24  1  0  0  0
  4 25  1  0  0  0
  5  6  1  0  0  0
  5 26  1  0  0  0
  5 27  1  0  0  0
  6  7  1  0  0  0
  6 28  1  0  0  0
  6 48  1  0  0  0
  7  8  1  0  0  0
  7 29  1  0  0  0
  7 30  1  0  0  0
  8 31  1  0  0  0
  8 32  1  0  0  0
  8 33  1  0  0  0
  9 10  1  0  0  0
  9 34  1  0  0  0
  9 35  1  0  0  0
  9 48  1  0  0  0
 10 11  1  0  0  0
 10 36  1  0  0  0
 10 37  1  0  0  0
 11 12  1  0  0  0
 11 14  1  0  0  0
 11 38  1  0  0  0
 12 13  1  0  0  0
 13 39  1  0  0  0
 13 40  1  0  0  0
 13 41  1  0  0  0
 14 15  1  0  0  0
 14 42  1  0  0  0
 14 43  1  0  0  0
 15 16  1  0  0  0
 15 44  1  0  0  0
 15 48  1  0  0  0
 16 45  1  0  0  0
 16 46  1  0  0  0
 16 47  1  0  0  0
 48 49  1  0  0  0
M  CHG  1  48   1
M  END
> <energy>
27.6918

> <chiral flag>
0

> <version>
0

> <i_ionizer_Ion_state_n>
1

> <i_ionizer_Tot_Q>
1

> <s_ionizer_Ion_centers>
48

> <s_ionizer_Ion_types>
N5

> <s_ionizer_Ion_ctrs_in>
9

> <r_ionizer_Ionization_penalty>
0.00148639

> <r_ionizer_Ionization_penalty_charging>
0.00148639

> <r_ionizer_Ionization_penalty_neutral>
0

$$$$
ZINC001258448312
                    3D
 Structure written by MMmdl.
 39 41  0  0  1  0            999 V2000
   -3.7571    1.0140    0.6709 C   0  0  0  0  0  0
   -2.8046    0.3849   -0.3419 C   0  0  2  0  0  0
   -3.1312   -1.1001   -0.6357 C   0  0  0  0  0  0
   -3.0373   -2.0267    0.5501 C   0  0  0  0  0  0
   -2.6101   -3.4577    0.3289 C   0  0  0  0  0  0
   -1.7095   -2.5184    1.0786 C   0  0  0  0  0  0
   -0.7834    1.7911   -0.1064 C   0  0  0  0  0  0
    0.7309    1.6783    0.0044 C   0  0  0  0  0  0
    1.4029    0.7383   -0.7781 C   0  0  0  0  0  0
    2.7910    0.6100   -0.6791 C   0  0  0  0  0  0
    3.4942   -0.3427   -1.4299 C   0  0  0  0  0  0
    4.8797   -0.4586   -1.3092 C   0  0  0  0  0  0
    5.5776    0.3769   -0.4386 C   0  0  0  0  0  0
    4.8870    1.3264    0.3144 C   0  0  0  0  0  0
    3.4887    1.4489    0.2055 C   0  0  0  0  0  0
    2.7313    2.3690    0.9381 C   0  0  0  0  0  0
    1.3818    2.5001    0.8636 N   0  0  0  0  0  0
   -3.6843    2.1079    0.6376 H   0  0  0  0  0  0
   -3.5496    0.7027    1.6995 H   0  0  0  0  0  0
   -4.7950    0.7448    0.4476 H   0  0  0  0  0  0
   -2.9358    0.9035   -1.3000 H   0  0  0  0  0  0
   -2.4584   -1.4523   -1.4317 H   0  0  0  0  0  0
   -4.1517   -1.1653   -1.0429 H   0  0  0  0  0  0
   -3.8214   -1.8423    1.2752 H   0  0  0  0  0  0
   -2.2975   -3.7685   -0.6610 H   0  0  0  0  0  0
   -3.0886   -4.2456    0.8996 H   0  0  0  0  0  0
   -0.7972   -2.1908    0.5910 H   0  0  0  0  0  0
   -1.6147   -2.6521    2.1522 H   0  0  0  0  0  0
   -1.0038    2.1900   -1.1046 H   0  0  0  0  0  0
   -1.1654    2.5020    0.6352 H   0  0  0  0  0  0
    0.8299    0.0965   -1.4414 H   0  0  0  0  0  0
    2.9682   -1.0062   -2.1137 H   0  0  0  0  0  0
    5.4184   -1.2066   -1.8885 H   0  0  0  0  0  0
    6.6575    0.2763   -0.3363 H   0  0  0  0  0  0
    5.4413    1.9614    0.9988 H   0  0  0  0  0  0
    3.2156    3.0510    1.6352 H   0  0  0  0  0  0
   -1.3846    0.4447    0.0872 N   0  3  0  0  0  0
   -1.3319    0.2015    1.0834 H   0  0  0  0  0  0
   -0.8469   -0.2372   -0.4605 H   0  0  0  0  0  0
  1  2  1  0  0  0
  1 18  1  0  0  0
  1 19  1  0  0  0
  1 20  1  0  0  0
  2  3  1  0  0  0
  2 21  1  0  0  0
  2 37  1  0  0  0
  3  4  1  0  0  0
  3 22  1  0  0  0
  3 23  1  0  0  0
  4  5  1  0  0  0
  4  6  1  0  0  0
  4 24  1  0  0  0
  5  6  1  0  0  0
  5 25  1  0  0  0
  5 26  1  0  0  0
  6 27  1  0  0  0
  6 28  1  0  0  0
  7  8  1  0  0  0
  7 29  1  0  0  0
  7 30  1  0  0  0
  7 37  1  0  0  0
  8  9  2  0  0  0
  8 17  1  0  0  0
  9 10  1  0  0  0
  9 31  1  0  0  0
 10 11  2  0  0  0
 10 15  1  0  0  0
 11 12  1  0  0  0
 11 32  1  0  0  0
 12 13  2  0  0  0
 12 33  1  0  0  0
 13 14  1  0  0  0
 13 34  1  0  0  0
 14 15  2  0  0  0
 14 35  1  0  0  0
 15 16  1  0  0  0
 16 17  2  0  0  0
 16 36  1  0  0  0
 37 38  1  0  0  0
 37 39  1  0  0  0
M  CHG  1  37   1
M  END
> <energy>
80.4817

> <chiral flag>
0

> <version>
0

> <i_ionizer_Ion_state_n>
1

> <i_ionizer_Tot_Q>
1

> <s_ionizer_Ion_centers>
37

> <s_ionizer_Ion_types>
N5

> <s_ionizer_Ion_ctrs_in>
7

> <r_ionizer_Ionization_penalty>
0.000148807

> <r_ionizer_Ionization_penalty_charging>
0.000148807

> <r_ionizer_Ionization_penalty_neutral>
0

$$$$
ZINC001258448313
                    3D
 Structure written by MMmdl.
 39 41  0  0  1  0            999 V2000
   -1.9955   -1.7797    0.4667 C   0  0  0  0  0  0
   -1.6837   -0.2795    0.4651 C   0  0  1  0  0  0
   -2.9764    0.5430    0.2574 C   0  0  0  0  0  0
   -3.4251    0.5636   -1.1783 C   0  0  0  0  0  0
   -4.8436    0.9674   -1.4912 C   0  0  0  0  0  0
   -4.3967   -0.4478   -1.7283 C   0  0  0  0  0  0
   -0.1500    1.2032    1.6824 C   0  0  0  0  0  0
    1.1358    0.9564    0.9124 C   0  0  0  0  0  0
    2.0409   -0.0058    1.3592 C   0  0  0  0  0  0
    3.2092   -0.2477    0.6249 C   0  0  0  0  0  0
    4.1485   -1.2130    1.0249 C   0  0  0  0  0  0
    5.2979   -1.4435    0.2656 C   0  0  0  0  0  0
    5.5234   -0.7155   -0.9003 C   0  0  0  0  0  0
    4.5997    0.2476   -1.3102 C   0  0  0  0  0  0
    3.4392    0.4880   -0.5514 C   0  0  0  0  0  0
    2.4776    1.4350   -0.9098 C   0  0  0  0  0  0
    1.3444    1.6862   -0.2111 N   0  0  0  0  0  0
   -2.7437   -2.0392    1.2244 H   0  0  0  0  0  0
   -1.0932   -2.3690    0.6684 H   0  0  0  0  0  0
   -2.3780   -2.1021   -0.5078 H   0  0  0  0  0  0
   -0.9878   -0.1001   -0.3628 H   0  0  0  0  0  0
   -2.8055    1.5870    0.5492 H   0  0  0  0  0  0
   -3.7758    0.1643    0.9090 H   0  0  0  0  0  0
   -2.6512    0.9370   -1.8415 H   0  0  0  0  0  0
   -5.0100    1.6047   -2.3521 H   0  0  0  0  0  0
   -5.5274    1.1499   -0.6697 H   0  0  0  0  0  0
   -4.2613   -0.7720   -2.7546 H   0  0  0  0  0  0
   -4.7802   -1.2173   -1.0697 H   0  0  0  0  0  0
   -0.6705    2.0729    1.2669 H   0  0  0  0  0  0
    0.1329    1.4841    2.7043 H   0  0  0  0  0  0
    1.8200   -0.5687    2.2598 H   0  0  0  0  0  0
    3.9896   -1.7941    1.9314 H   0  0  0  0  0  0
    6.0166   -2.1941    0.5843 H   0  0  0  0  0  0
    6.4133   -0.9013   -1.4956 H   0  0  0  0  0  0
    4.7832    0.8048   -2.2257 H   0  0  0  0  0  0
    2.5945    2.0403   -1.8050 H   0  0  0  0  0  0
   -1.0464    0.0205    1.7782 N   0  3  0  0  0  0
   -1.7800    0.2113    2.4708 H   0  0  0  0  0  0
   -0.4965   -0.7933    2.0774 H   0  0  0  0  0  0
  1  2  1  0  0  0
  1 18  1  0  0  0
  1 19  1  0  0  0
  1 20  1  0  0  0
  2  3  1  0  0  0
  2 21  1  0  0  0
  2 37  1  0  0  0
  3  4  1  0  0  0
  3 22  1  0  0  0
  3 23  1  0  0  0
  4  5  1  0  0  0
  4  6  1  0  0  0
  4 24  1  0  0  0
  5  6  1  0  0  0
  5 25  1  0  0  0
  5 26  1  0  0  0
  6 27  1  0  0  0
  6 28  1  0  0  0
  7  8  1  0  0  0
  7 29  1  0  0  0
  7 30  1  0  0  0
  7 37  1  0  0  0
  8  9  2  0  0  0
  8 17  1  0  0  0
  9 10  1  0  0  0
  9 31  1  0  0  0
 10 11  2  0  0  0
 10 15  1  0  0  0
 11 12  1  0  0  0
 11 32  1  0  0  0
 12 13  2  0  0  0
 12 33  1  0  0  0
 13 14  1  0  0  0
 13 34  1  0  0  0
 14 15  2  0  0  0
 14 35  1  0  0  0
 15 16  1  0  0  0
 16 17  2  0  0  0
 16 36  1  0  0  0
 37 38  1  0  0  0
 37 39  1  0  0  0
M  CHG  1  37   1
M  END
> <energy>
78.7231

> <chiral flag>
0

> <version>
0

> <i_ionizer_Ion_state_n>
1

> <i_ionizer_Tot_Q>
1

> <s_ionizer_Ion_centers>
37

> <s_ionizer_Ion_types>
N5

> <s_ionizer_Ion_ctrs_in>
7

> <r_ionizer_Ionization_penalty>
0.000148807

> <r_ionizer_Ionization_penalty_charging>
0.000148807

> <r_ionizer_Ionization_penalty_neutral>
0

$$$$
ZINC001258448320
                    3D
 Structure written by MMmdl.
 40 41  0  0  1  0            999 V2000
   -2.1329    1.9781    0.7104 C   0  0  0  0  0  0
   -2.1643    0.7421   -0.1513 C   0  0  0  0  0  0
   -2.8089    0.8259   -1.3960 C   0  0  0  0  0  0
   -2.8722   -0.2819   -2.2237 C   0  0  0  0  0  0
   -3.4968   -0.1896   -3.4052 F   0  0  0  0  0  0
   -2.3155   -1.4912   -1.8360 C   0  0  0  0  0  0
   -1.6632   -1.6130   -0.5961 C   0  0  0  0  0  0
   -1.0987   -2.9607   -0.2338 C   0  0  0  0  0  0
   -1.5519   -0.4795    0.2515 C   0  0  0  0  0  0
   -0.8051   -0.5522    1.5770 C   0  0  0  0  0  0
    1.6185   -0.4335    1.1939 C   0  0  2  0  0  0
    2.3526   -0.8986    2.4559 C   0  0  0  0  0  0
    2.5387    0.4853    0.3595 C   0  0  0  0  0  0
    2.0500    0.6590   -1.0522 C   0  0  0  0  0  0
    1.2120    1.8481   -1.4403 C   0  0  0  0  0  0
    2.6334    1.7464   -1.9198 C   0  0  0  0  0  0
   -2.4938    1.7554    1.7194 H   0  0  0  0  0  0
   -2.7876    2.7590    0.3078 H   0  0  0  0  0  0
   -1.1226    2.3926    0.7601 H   0  0  0  0  0  0
   -3.2624    1.7541   -1.7312 H   0  0  0  0  0  0
   -2.3993   -2.3367   -2.5128 H   0  0  0  0  0  0
   -1.4412   -3.2676    0.7592 H   0  0  0  0  0  0
   -1.4360   -3.7354   -0.9324 H   0  0  0  0  0  0
   -0.0060   -2.9409   -0.2631 H   0  0  0  0  0  0
   -0.5716   -1.5770    1.8820 H   0  0  0  0  0  0
   -1.4894   -0.1975    2.3570 H   0  0  0  0  0  0
    1.3787   -1.3127    0.5868 H   0  0  0  0  0  0
    3.2283   -1.5011    2.1936 H   0  0  0  0  0  0
    2.6994   -0.0466    3.0536 H   0  0  0  0  0  0
    1.7036   -1.5157    3.0876 H   0  0  0  0  0  0
    3.5378    0.0323    0.3013 H   0  0  0  0  0  0
    2.6702    1.4560    0.8560 H   0  0  0  0  0  0
    1.8311   -0.2886   -1.5308 H   0  0  0  0  0  0
    0.9798    2.5853   -0.6816 H   0  0  0  0  0  0
    0.4143    1.6819   -2.1549 H   0  0  0  0  0  0
    2.8012    1.5213   -2.9674 H   0  0  0  0  0  0
    3.3576    2.4263   -1.4872 H   0  0  0  0  0  0
    0.3965    0.3135    1.5947 N   0  3  0  0  0  0
    0.2543    1.0935    0.9422 H   0  0  0  0  0  0
    0.5277    0.6813    2.5443 H   0  0  0  0  0  0
  1  2  1  0  0  0
  1 17  1  0  0  0
  1 18  1  0  0  0
  1 19  1  0  0  0
  2  3  2  0  0  0
  2  9  1  0  0  0
  3  4  1  0  0  0
  3 20  1  0  0  0
  4  5  1  0  0  0
  4  6  2  0  0  0
  6  7  1  0  0  0
  6 21  1  0  0  0
  7  8  1  0  0  0
  7  9  2  0  0  0
  8 22  1  0  0  0
  8 23  1  0  0  0
  8 24  1  0  0  0
  9 10  1  0  0  0
 10 25  1  0  0  0
 10 26  1  0  0  0
 10 38  1  0  0  0
 11 12  1  0  0  0
 11 13  1  0  0  0
 11 27  1  0  0  0
 11 38  1  0  0  0
 12 28  1  0  0  0
 12 29  1  0  0  0
 12 30  1  0  0  0
 13 14  1  0  0  0
 13 31  1  0  0  0
 13 32  1  0  0  0
 14 15  1  0  0  0
 14 16  1  0  0  0
 14 33  1  0  0  0
 15 16  1  0  0  0
 15 34  1  0  0  0
 15 35  1  0  0  0
 16 36  1  0  0  0
 16 37  1  0  0  0
 38 39  1  0  0  0
 38 40  1  0  0  0
M  CHG  1  38   1
M  END
> <energy>
53.8361

> <chiral flag>
0

> <version>
0

> <i_ionizer_Ion_state_n>
1

> <i_ionizer_Tot_Q>
1

> <s_ionizer_Ion_centers>
38

> <s_ionizer_Ion_types>
N5

> <s_ionizer_Ion_ctrs_in>
11

> <r_ionizer_Ionization_penalty>
0.000148807

> <r_ionizer_Ionization_penalty_charging>
0.000148807

> <r_ionizer_Ionization_penalty_neutral>
0

$$$$
ZINC001258448321
                    3D
 Structure written by MMmdl.
 40 41  0  0  1  0            999 V2000
   -2.3085   -1.9425   -2.1581 C   0  0  0  0  0  0
   -2.7157   -0.8248   -1.2342 C   0  0  0  0  0  0
   -3.7869   -0.0062   -1.6231 C   0  0  0  0  0  0
   -4.1606    1.0783   -0.8429 C   0  0  0  0  0  0
   -5.1621    1.8682   -1.2498 F   0  0  0  0  0  0
   -3.4969    1.3635    0.3425 C   0  0  0  0  0  0
   -2.4140    0.5732    0.7583 C   0  0  0  0  0  0
   -1.7255    0.9336    2.0543 C   0  0  0  0  0  0
   -2.0131   -0.5396   -0.0313 C   0  0  0  0  0  0
   -0.8071   -1.3714    0.3658 C   0  0  0  0  0  0
    1.5520   -0.6875    0.3057 C   0  0  1  0  0  0
    2.2741   -1.9678    0.7369 C   0  0  0  0  0  0
    2.4696    0.1951   -0.5737 C   0  0  0  0  0  0
    3.4737    0.9459    0.2646 C   0  0  0  0  0  0
    4.0329    2.2662   -0.1930 C   0  0  0  0  0  0
    3.0575    2.2177    0.9495 C   0  0  0  0  0  0
   -2.1886   -2.8823   -1.6145 H   0  0  0  0  0  0
   -3.0681   -2.1187   -2.9269 H   0  0  0  0  0  0
   -1.3733   -1.6899   -2.6652 H   0  0  0  0  0  0
   -4.3304   -0.2002   -2.5424 H   0  0  0  0  0  0
   -3.8224    2.2177    0.9313 H   0  0  0  0  0  0
   -1.9564    0.1857    2.8200 H   0  0  0  0  0  0
   -2.0499    1.9141    2.4199 H   0  0  0  0  0  0
   -0.6460    0.9884    1.9051 H   0  0  0  0  0  0
   -0.6056   -1.2799    1.4379 H   0  0  0  0  0  0
   -1.0430   -2.4332    0.2396 H   0  0  0  0  0  0
    1.2749   -0.1121    1.2009 H   0  0  0  0  0  0
    3.1662   -1.7250    1.3240 H   0  0  0  0  0  0
    2.5965   -2.5587   -0.1272 H   0  0  0  0  0  0
    1.6301   -2.5996    1.3605 H   0  0  0  0  0  0
    2.9953   -0.4186   -1.3174 H   0  0  0  0  0  0
    1.8636    0.9197   -1.1350 H   0  0  0  0  0  0
    4.1609    0.2865    0.7817 H   0  0  0  0  0  0
    3.6945    2.6773   -1.1382 H   0  0  0  0  0  0
    5.0682    2.4960    0.0434 H   0  0  0  0  0  0
    3.4313    2.4052    1.9479 H   0  0  0  0  0  0
    2.0561    2.5982    0.7746 H   0  0  0  0  0  0
    0.3458   -1.0149   -0.4922 N   0  3  0  0  0  0
    0.5601   -1.8094   -1.1063 H   0  0  0  0  0  0
    0.0944   -0.1993   -1.0630 H   0  0  0  0  0  0
  1  2  1  0  0  0
  1 17  1  0  0  0
  1 18  1  0  0  0
  1 19  1  0  0  0
  2  3  2  0  0  0
  2  9  1  0  0  0
  3  4  1  0  0  0
  3 20  1  0  0  0
  4  5  1  0  0  0
  4  6  2  0  0  0
  6  7  1  0  0  0
  6 21  1  0  0  0
  7  8  1  0  0  0
  7  9  2  0  0  0
  8 22  1  0  0  0
  8 23  1  0  0  0
  8 24  1  0  0  0
  9 10  1  0  0  0
 10 25  1  0  0  0
 10 26  1  0  0  0
 10 38  1  0  0  0
 11 12  1  0  0  0
 11 13  1  0  0  0
 11 27  1  0  0  0
 11 38  1  0  0  0
 12 28  1  0  0  0
 12 29  1  0  0  0
 12 30  1  0  0  0
 13 14  1  0  0  0
 13 31  1  0  0  0
 13 32  1  0  0  0
 14 15  1  0  0  0
 14 16  1  0  0  0
 14 33  1  0  0  0
 15 16  1  0  0  0
 15 34  1  0  0  0
 15 35  1  0  0  0
 16 36  1  0  0  0
 16 37  1  0  0  0
 38 39  1  0  0  0
 38 40  1  0  0  0
M  CHG  1  38   1
M  END
> <energy>
53.539

> <chiral flag>
0

> <version>
0

> <i_ionizer_Ion_state_n>
1

> <i_ionizer_Tot_Q>
1

> <s_ionizer_Ion_centers>
38

> <s_ionizer_Ion_types>
N5

> <s_ionizer_Ion_ctrs_in>
11

> <r_ionizer_Ionization_penalty>
0.000148807

> <r_ionizer_Ionization_penalty_charging>
0.000148807

> <r_ionizer_Ionization_penalty_neutral>
0

$$$$
ZINC001258448593
                    3D
 Structure written by MMmdl.
 41 43  0  0  1  0            999 V2000
   -0.7255    1.7440    2.9813 C   0  0  0  0  0  0
   -0.7487    1.7330    1.4501 C   0  0  2  0  0  0
   -2.1898    1.6143    0.9139 C   0  0  0  0  0  0
   -2.2749    1.8918   -0.5630 C   0  0  0  0  0  0
   -3.5126    1.5101   -1.3334 C   0  0  0  0  0  0
   -2.2296    0.7597   -1.5565 C   0  0  0  0  0  0
    0.1339    0.6957    0.9084 N   0  0  0  0  0  0
    0.0412   -0.6410    1.2099 C   0  0  0  0  0  0
    1.0322   -1.3199    0.5298 C   0  0  0  0  0  0
    1.2838   -2.7969    0.5788 C   0  0  0  0  0  0
    0.4237   -3.5608   -0.4349 C   0  0  0  0  0  0
    1.7546   -0.3451   -0.2275 C   0  0  0  0  0  0
    2.8537   -0.4189   -1.1100 C   0  0  0  0  0  0
    3.3466    0.7456   -1.7085 C   0  0  0  0  0  0
    2.7523    1.9756   -1.4508 C   0  0  0  0  0  0
    1.6562    2.0758   -0.5902 C   0  0  0  0  0  0
    1.1756    0.9043    0.0224 C   0  0  0  0  0  0
    0.3021    1.8098    3.3563 H   0  0  0  0  0  0
   -1.2790    2.6055    3.3686 H   0  0  0  0  0  0
   -1.1785    0.8409    3.4032 H   0  0  0  0  0  0
   -0.3416    2.6973    1.1274 H   0  0  0  0  0  0
   -2.8234    2.3511    1.4244 H   0  0  0  0  0  0
   -2.6081    0.6261    1.1468 H   0  0  0  0  0  0
   -1.7986    2.8271   -0.8375 H   0  0  0  0  0  0
   -4.3143    0.9993   -0.8123 H   0  0  0  0  0  0
   -3.8490    2.1803   -2.1175 H   0  0  0  0  0  0
   -1.6856    0.9253   -2.4795 H   0  0  0  0  0  0
   -2.1652   -0.2580   -1.1878 H   0  0  0  0  0  0
   -0.7205   -1.0126    1.8827 H   0  0  0  0  0  0
    2.3478   -2.9962    0.3939 H   0  0  0  0  0  0
    1.0737   -3.1639    1.5924 H   0  0  0  0  0  0
   -0.6380   -3.3937   -0.2212 H   0  0  0  0  0  0
    0.6101   -3.1915   -1.4496 H   0  0  0  0  0  0
    0.0970   -5.4636   -1.0862 H   0  0  0  0  0  0
    3.3223   -1.3744   -1.3244 H   0  0  0  0  0  0
    4.1981    0.6860   -2.3809 H   0  0  0  0  0  0
    3.1435    2.8722   -1.9248 H   0  0  0  0  0  0
    1.1985    3.0428   -0.4122 H   0  0  0  0  0  0
    0.6872   -4.9973   -0.3958 N   0  3  0  0  0  0
    1.6754   -5.1712   -0.6136 H   0  0  0  0  0  0
    0.4742   -5.3601    0.5408 H   0  0  0  0  0  0
  1  2  1  0  0  0
  1 18  1  0  0  0
  1 19  1  0  0  0
  1 20  1  0  0  0
  2  3  1  0  0  0
  2  7  1  0  0  0
  2 21  1  0  0  0
  3  4  1  0  0  0
  3 22  1  0  0  0
  3 23  1  0  0  0
  4  5  1  0  0  0
  4  6  1  0  0  0
  4 24  1  0  0  0
  5  6  1  0  0  0
  5 25  1  0  0  0
  5 26  1  0  0  0
  6 27  1  0  0  0
  6 28  1  0  0  0
  7  8  1  0  0  0
  7 17  1  0  0  0
  8  9  2  0  0  0
  8 29  1  0  0  0
  9 10  1  0  0  0
  9 12  1  0  0  0
 10 11  1  0  0  0
 10 30  1  0  0  0
 10 31  1  0  0  0
 11 32  1  0  0  0
 11 33  1  0  0  0
 11 39  1  0  0  0
 12 13  1  0  0  0
 12 17  2  0  0  0
 13 14  2  0  0  0
 13 35  1  0  0  0
 14 15  1  0  0  0
 14 36  1  0  0  0
 15 16  2  0  0  0
 15 37  1  0  0  0
 16 17  1  0  0  0
 16 38  1  0  0  0
 34 39  1  0  0  0
 39 40  1  0  0  0
 39 41  1  0  0  0
M  CHG  1  39   1
M  END
> <energy>
55.5993

> <chiral flag>
0

> <version>
0

> <i_ionizer_Ion_state_n>
1

> <i_ionizer_Tot_Q>
1

> <s_ionizer_Ion_centers>
39

> <s_ionizer_Ion_types>
N5

> <s_ionizer_Ion_ctrs_in>
12

> <r_ionizer_Ionization_penalty>
0.000470441

> <r_ionizer_Ionization_penalty_charging>
0.000470441

> <r_ionizer_Ionization_penalty_neutral>
0

$$$$
ZINC001258448596
                    3D
 Structure written by MMmdl.
 41 43  0  0  1  0            999 V2000
   -0.6439    2.2322    2.4391 C   0  0  0  0  0  0
   -1.1230    1.1578    1.4596 C   0  0  1  0  0  0
   -2.1256    1.7312    0.4388 C   0  0  0  0  0  0
   -2.7081    0.6865   -0.4728 C   0  0  0  0  0  0
   -2.1940    0.5354   -1.8811 C   0  0  0  0  0  0
   -3.5620    1.1084   -1.6416 C   0  0  0  0  0  0
    0.0031    0.4332    0.8675 N   0  0  0  0  0  0
    0.2780   -0.8781    1.1726 C   0  0  0  0  0  0
    1.3859   -1.2873    0.4601 C   0  0  0  0  0  0
    2.0223   -2.6446    0.5170 C   0  0  0  0  0  0
    1.1377   -3.7840   -0.0144 C   0  0  0  0  0  0
    1.8155   -0.1550   -0.3029 C   0  0  0  0  0  0
    2.8790    0.0592   -1.2073 C   0  0  0  0  0  0
    3.0655    1.3188   -1.7839 C   0  0  0  0  0  0
    2.2075    2.3671   -1.4757 C   0  0  0  0  0  0
    1.1404    2.1822   -0.5912 C   0  0  0  0  0  0
    0.9527    0.9130   -0.0150 C   0  0  0  0  0  0
   -0.1277    3.0516    1.9294 H   0  0  0  0  0  0
   -1.4918    2.6614    2.9842 H   0  0  0  0  0  0
    0.0491    1.8092    3.1752 H   0  0  0  0  0  0
   -1.6695    0.4130    2.0567 H   0  0  0  0  0  0
   -2.9572    2.1926    0.9894 H   0  0  0  0  0  0
   -1.6735    2.5363   -0.1499 H   0  0  0  0  0  0
   -3.0152   -0.2093    0.0547 H   0  0  0  0  0  0
   -2.1137   -0.4692   -2.2806 H   0  0  0  0  0  0
   -1.4181    1.2068   -2.2305 H   0  0  0  0  0  0
   -3.7061    2.1671   -1.8241 H   0  0  0  0  0  0
   -4.4200    0.4943   -1.8916 H   0  0  0  0  0  0
   -0.3425   -1.4323    1.8660 H   0  0  0  0  0  0
    2.9481   -2.6347   -0.0712 H   0  0  0  0  0  0
    2.3289   -2.8521    1.5508 H   0  0  0  0  0  0
    0.6328   -3.4805   -0.9378 H   0  0  0  0  0  0
    1.7789   -4.6389   -0.2581 H   0  0  0  0  0  0
    0.6080   -4.6033    1.7844 H   0  0  0  0  0  0
    3.5601   -0.7497   -1.4540 H   0  0  0  0  0  0
    3.8912    1.4787   -2.4729 H   0  0  0  0  0  0
    2.3652    3.3443   -1.9273 H   0  0  0  0  0  0
    0.4822    3.0140   -0.3698 H   0  0  0  0  0  0
    0.1368   -4.2462    0.9504 N   0  3  0  0  0  0
   -0.4745   -3.4636    1.2111 H   0  0  0  0  0  0
   -0.4259   -4.9942    0.5283 H   0  0  0  0  0  0
  1  2  1  0  0  0
  1 18  1  0  0  0
  1 19  1  0  0  0
  1 20  1  0  0  0
  2  3  1  0  0  0
  2  7  1  0  0  0
  2 21  1  0  0  0
  3  4  1  0  0  0
  3 22  1  0  0  0
  3 23  1  0  0  0
  4  5  1  0  0  0
  4  6  1  0  0  0
  4 24  1  0  0  0
  5  6  1  0  0  0
  5 25  1  0  0  0
  5 26  1  0  0  0
  6 27  1  0  0  0
  6 28  1  0  0  0
  7  8  1  0  0  0
  7 17  1  0  0  0
  8  9  2  0  0  0
  8 29  1  0  0  0
  9 10  1  0  0  0
  9 12  1  0  0  0
 10 11  1  0  0  0
 10 30  1  0  0  0
 10 31  1  0  0  0
 11 32  1  0  0  0
 11 33  1  0  0  0
 11 39  1  0  0  0
 12 13  1  0  0  0
 12 17  2  0  0  0
 13 14  2  0  0  0
 13 35  1  0  0  0
 14 15  1  0  0  0
 14 36  1  0  0  0
 15 16  2  0  0  0
 15 37  1  0  0  0
 16 17  1  0  0  0
 16 38  1  0  0  0
 34 39  1  0  0  0
 39 40  1  0  0  0
 39 41  1  0  0  0
M  CHG  1  39   1
M  END
> <energy>
60.9397

> <chiral flag>
0

> <version>
0

> <i_ionizer_Ion_state_n>
1

> <i_ionizer_Tot_Q>
1

> <s_ionizer_Ion_centers>
39

> <s_ionizer_Ion_types>
N5

> <s_ionizer_Ion_ctrs_in>
12

> <r_ionizer_Ionization_penalty>
0.000470441

> <r_ionizer_Ionization_penalty_charging>
0.000470441

> <r_ionizer_Ionization_penalty_neutral>
0

$$$$
ZINC001258448687
                    3D
 Structure written by MMmdl.
 39 39  0  0  1  0            999 V2000
   -4.2588    0.3397    0.0076 C   0  0  0  0  0  0
   -3.9104   -0.7897   -0.9516 C   0  0  0  0  0  0
   -2.4989   -0.6823   -1.5328 C   0  0  0  0  0  0
   -1.4076   -0.8188   -0.4695 C   0  0  0  0  0  0
   -0.0015   -0.7732   -1.0874 C   0  0  0  0  0  0
    1.0928   -0.6304    0.0064 C   0  0  1  0  0  0
    1.9344   -1.9249    0.1189 C   0  0  0  0  0  0
    1.1463   -3.1207    0.6395 C   0  0  0  0  0  0
    2.7876    0.9305    0.8622 C   0  0  0  0  0  0
    2.5424    2.3821    0.4100 C   0  0  2  0  0  0
    2.2552    3.3660    1.5059 C   0  0  0  0  0  0
    3.4052    3.6302    2.1768 F   0  0  0  0  0  0
    1.8478    4.5372    0.9570 F   0  0  0  0  0  0
    1.3012    1.8011   -0.2900 C   0  0  0  0  0  0
   -4.1158    1.3136   -0.4701 H   0  0  0  0  0  0
   -5.3044    0.2568    0.3218 H   0  0  0  0  0  0
   -3.6429    0.3052    0.9116 H   0  0  0  0  0  0
   -4.6327   -0.7772   -1.7776 H   0  0  0  0  0  0
   -4.0293   -1.7506   -0.4396 H   0  0  0  0  0  0
   -2.3934    0.2809   -2.0446 H   0  0  0  0  0  0
   -2.3686   -1.4641   -2.2908 H   0  0  0  0  0  0
   -1.5049    0.0010    0.2528 H   0  0  0  0  0  0
   -1.5358   -1.7584    0.0826 H   0  0  0  0  0  0
    0.0309    0.0690   -1.7895 H   0  0  0  0  0  0
    0.1667   -1.6682   -1.7019 H   0  0  0  0  0  0
    0.6184   -0.4498    0.9806 H   0  0  0  0  0  0
    2.3738   -2.1802   -0.8547 H   0  0  0  0  0  0
    2.7750   -1.7650    0.8049 H   0  0  0  0  0  0
    1.8246   -3.9627    0.8201 H   0  0  0  0  0  0
    0.6457   -2.8844    1.5860 H   0  0  0  0  0  0
    0.3899   -3.4464   -0.0807 H   0  0  0  0  0  0
    3.8396    0.6235    0.8630 H   0  0  0  0  0  0
    2.3531    0.6839    1.8411 H   0  0  0  0  0  0
    3.3013    2.7456   -0.2936 H   0  0  0  0  0  0
    1.4991    3.0294    2.2213 H   0  0  0  0  0  0
    0.3809    1.8260    0.3073 H   0  0  0  0  0  0
    1.0887    2.2374   -1.2707 H   0  0  0  0  0  0
    2.0014    0.5888   -0.2436 N   0  3  2  0  0  0
    2.5605    0.4243   -1.0890 H   0  0  0  0  0  0
  1  2  1  0  0  0
  1 15  1  0  0  0
  1 16  1  0  0  0
  1 17  1  0  0  0
  2  3  1  0  0  0
  2 18  1  0  0  0
  2 19  1  0  0  0
  3  4  1  0  0  0
  3 20  1  0  0  0
  3 21  1  0  0  0
  4  5  1  0  0  0
  4 22  1  0  0  0
  4 23  1  0  0  0
  5  6  1  0  0  0
  5 24  1  0  0  0
  5 25  1  0  0  0
  6  7  1  0  0  0
  6 26  1  0  0  0
  6 38  1  0  0  0
  7  8  1  0  0  0
  7 27  1  0  0  0
  7 28  1  0  0  0
  8 29  1  0  0  0
  8 30  1  0  0  0
  8 31  1  0  0  0
  9 10  1  0  0  0
  9 32  1  0  0  0
  9 33  1  0  0  0
  9 38  1  0  0  0
 10 11  1  0  0  0
 10 14  1  0  0  0
 10 34  1  0  0  0
 11 12  1  0  0  0
 11 13  1  0  0  0
 11 35  1  0  0  0
 14 36  1  0  0  0
 14 37  1  0  0  0
 14 38  1  0  0  0
 38 39  1  0  0  0
M  CHG  1  38   1
M  END
> <energy>
5.12142

> <chiral flag>
0

> <version>
0

> <i_ionizer_Ion_state_n>
1

> <i_ionizer_Tot_Q>
1

> <s_ionizer_Ion_centers>
38

> <s_ionizer_Ion_types>
N5

> <s_ionizer_Ion_ctrs_in>
9

> <r_ionizer_Ionization_penalty>
0.00148639

> <r_ionizer_Ionization_penalty_charging>
0.00148639

> <r_ionizer_Ionization_penalty_neutral>
0

$$$$
ZINC001258448689
                    3D
 Structure written by MMmdl.
 39 39  0  0  1  0            999 V2000
   -2.2980    2.4478    1.3204 C   0  0  0  0  0  0
   -2.5214    1.1324    2.0568 C   0  0  0  0  0  0
   -2.8451   -0.0477    1.1289 C   0  0  0  0  0  0
   -1.6767   -0.4906    0.2411 C   0  0  0  0  0  0
   -0.5610   -1.2179    0.9986 C   0  0  0  0  0  0
    0.9145   -0.8222    0.7057 C   0  0  2  0  0  0
    1.2796    0.4732    1.4812 C   0  0  0  0  0  0
    2.7679    0.8096    1.4673 C   0  0  0  0  0  0
    1.0934    0.2472   -1.5599 C   0  0  0  0  0  0
    0.7578   -0.7999   -2.6382 C   0  0  1  0  0  0
    1.6932   -0.8041   -3.8209 C   0  0  0  0  0  0
    1.4610   -1.9181   -4.5632 F   0  0  0  0  0  0
    2.9879   -0.8683   -3.4137 F   0  0  0  0  0  0
    0.9830   -1.8701   -1.5539 C   0  0  0  0  0  0
   -3.1524    2.6876    0.6852 H   0  0  0  0  0  0
   -2.1712    3.2659    2.0369 H   0  0  0  0  0  0
   -1.4041    2.4180    0.6928 H   0  0  0  0  0  0
   -3.3640    1.2700    2.7454 H   0  0  0  0  0  0
   -1.6462    0.9116    2.6794 H   0  0  0  0  0  0
   -3.1914   -0.8965    1.7311 H   0  0  0  0  0  0
   -3.6836    0.2338    0.4789 H   0  0  0  0  0  0
   -1.3216    0.3820   -0.2978 H   0  0  0  0  0  0
   -2.0764   -1.1746   -0.5214 H   0  0  0  0  0  0
   -0.7244   -1.1243    2.0829 H   0  0  0  0  0  0
   -0.6704   -2.2950    0.8100 H   0  0  0  0  0  0
    1.4895   -1.6098    1.2176 H   0  0  0  0  0  0
    0.7172    1.3311    1.1002 H   0  0  0  0  0  0
    0.9901    0.3482    2.5351 H   0  0  0  0  0  0
    3.1000    1.1055    0.4704 H   0  0  0  0  0  0
    3.3654   -0.0434    1.8022 H   0  0  0  0  0  0
    2.9698    1.6424    2.1494 H   0  0  0  0  0  0
    0.2621    0.8901   -1.2752 H   0  0  0  0  0  0
    1.9224    0.9183   -1.8173 H   0  0  0  0  0  0
   -0.2904   -0.7579   -2.9710 H   0  0  0  0  0  0
    1.5670    0.0786   -4.4578 H   0  0  0  0  0  0
    1.7320   -2.6303   -1.8075 H   0  0  0  0  0  0
    0.0672   -2.3941   -1.2658 H   0  0  0  0  0  0
    1.4818   -0.8379   -0.7438 N   0  3  2  0  0  0
    2.5050   -0.8898   -0.6756 H   0  0  0  0  0  0
  1  2  1  0  0  0
  1 15  1  0  0  0
  1 16  1  0  0  0
  1 17  1  0  0  0
  2  3  1  0  0  0
  2 18  1  0  0  0
  2 19  1  0  0  0
  3  4  1  0  0  0
  3 20  1  0  0  0
  3 21  1  0  0  0
  4  5  1  0  0  0
  4 22  1  0  0  0
  4 23  1  0  0  0
  5  6  1  0  0  0
  5 24  1  0  0  0
  5 25  1  0  0  0
  6  7  1  0  0  0
  6 26  1  0  0  0
  6 38  1  0  0  0
  7  8  1  0  0  0
  7 27  1  0  0  0
  7 28  1  0  0  0
  8 29  1  0  0  0
  8 30  1  0  0  0
  8 31  1  0  0  0
  9 10  1  0  0  0
  9 32  1  0  0  0
  9 33  1  0  0  0
  9 38  1  0  0  0
 10 11  1  0  0  0
 10 14  1  0  0  0
 10 34  1  0  0  0
 11 12  1  0  0  0
 11 13  1  0  0  0
 11 35  1  0  0  0
 14 36  1  0  0  0
 14 37  1  0  0  0
 14 38  1  0  0  0
 38 39  1  0  0  0
M  CHG  1  38   1
M  END
> <energy>
18.8619

> <chiral flag>
0

> <version>
0

> <i_ionizer_Ion_state_n>
1

> <i_ionizer_Tot_Q>
1

> <s_ionizer_Ion_centers>
38

> <s_ionizer_Ion_types>
N5

> <s_ionizer_Ion_ctrs_in>
9

> <r_ionizer_Ionization_penalty>
0.00148639

> <r_ionizer_Ionization_penalty_charging>
0.00148639

> <r_ionizer_Ionization_penalty_neutral>
0

$$$$
ZINC001258448716
                    3D
 Structure written by MMmdl.
 42 42  0  0  1  0            999 V2000
   -3.3129    1.8210    1.2916 C   0  0  0  0  0  0
   -2.7486    0.4212    1.0998 C   0  0  0  0  0  0
   -2.3350    0.1866   -0.3522 C   0  0  0  0  0  0
   -1.8714   -1.2429   -0.6568 C   0  0  0  0  0  0
   -0.7578   -1.8391    0.2195 C   0  0  0  0  0  0
    0.7078   -1.3721    0.0084 C   0  0  1  0  0  0
    1.4412   -2.1297   -1.1277 C   0  0  0  0  0  0
    0.8079   -2.1415   -2.5087 C   0  0  0  0  0  0
    1.3338    0.8256   -1.0885 C   0  0  0  0  0  0
    1.5105    2.2471   -0.5564 C   0  0  0  0  0  0
    1.1896    2.1650    0.9305 C   0  0  0  0  0  0
    1.3387    0.6849    1.2749 C   0  0  2  0  0  0
    2.8031    0.3507    1.6213 C   0  0  0  0  0  0
    2.8954   -0.9123    2.1186 F   0  0  0  0  0  0
   -4.2001    1.9749    0.6695 H   0  0  0  0  0  0
   -2.5709    2.5812    1.0265 H   0  0  0  0  0  0
   -3.5988    1.9751    2.3368 H   0  0  0  0  0  0
   -1.8901    0.3007    1.7677 H   0  0  0  0  0  0
   -3.5032   -0.3159    1.3973 H   0  0  0  0  0  0
   -1.5678    0.9099   -0.6412 H   0  0  0  0  0  0
   -3.1947    0.3991   -1.0010 H   0  0  0  0  0  0
   -2.7489   -1.8955   -0.5497 H   0  0  0  0  0  0
   -1.5971   -1.2920   -1.7133 H   0  0  0  0  0  0
   -0.7803   -2.9291    0.0793 H   0  0  0  0  0  0
   -1.0207   -1.6919    1.2744 H   0  0  0  0  0  0
    1.2167   -1.7508    0.9043 H   0  0  0  0  0  0
    1.5516   -3.1775   -0.8147 H   0  0  0  0  0  0
    2.4689   -1.7547   -1.2072 H   0  0  0  0  0  0
    1.4942   -2.6085   -3.2234 H   0  0  0  0  0  0
   -0.1093   -2.7374   -2.5160 H   0  0  0  0  0  0
    0.5811   -1.1412   -2.8800 H   0  0  0  0  0  0
    0.6424    0.8296   -1.9355 H   0  0  0  0  0  0
    2.3047    0.4483   -1.4258 H   0  0  0  0  0  0
    0.8450    2.9567   -1.0591 H   0  0  0  0  0  0
    2.5420    2.5834   -0.7087 H   0  0  0  0  0  0
    0.1526    2.4848    1.0951 H   0  0  0  0  0  0
    1.8331    2.8209    1.5253 H   0  0  0  0  0  0
    0.7040    0.4304    2.1313 H   0  0  0  0  0  0
    3.1793    1.0261    2.3962 H   0  0  0  0  0  0
    3.4684    0.4221    0.7556 H   0  0  0  0  0  0
    0.6937    0.1619    0.0631 N   0  3  2  0  0  0
   -0.2923    0.4480    0.0779 H   0  0  0  0  0  0
  1  2  1  0  0  0
  1 15  1  0  0  0
  1 16  1  0  0  0
  1 17  1  0  0  0
  2  3  1  0  0  0
  2 18  1  0  0  0
  2 19  1  0  0  0
  3  4  1  0  0  0
  3 20  1  0  0  0
  3 21  1  0  0  0
  4  5  1  0  0  0
  4 22  1  0  0  0
  4 23  1  0  0  0
  5  6  1  0  0  0
  5 24  1  0  0  0
  5 25  1  0  0  0
  6  7  1  0  0  0
  6 26  1  0  0  0
  6 41  1  0  0  0
  7  8  1  0  0  0
  7 27  1  0  0  0
  7 28  1  0  0  0
  8 29  1  0  0  0
  8 30  1  0  0  0
  8 31  1  0  0  0
  9 10  1  0  0  0
  9 32  1  0  0  0
  9 33  1  0  0  0
  9 41  1  0  0  0
 10 11  1  0  0  0
 10 34  1  0  0  0
 10 35  1  0  0  0
 11 12  1  0  0  0
 11 36  1  0  0  0
 11 37  1  0  0  0
 12 13  1  0  0  0
 12 38  1  0  0  0
 12 41  1  0  0  0
 13 14  1  0  0  0
 13 39  1  0  0  0
 13 40  1  0  0  0
 41 42  1  0  0  0
M  CHG  1  41   1
M  END
> <energy>
43.5028

> <chiral flag>
0

> <version>
0

> <i_ionizer_Ion_state_n>
1

> <i_ionizer_Tot_Q>
1

> <s_ionizer_Ion_centers>
41

> <s_ionizer_Ion_types>
N5

> <s_ionizer_Ion_ctrs_in>
9

> <r_ionizer_Ionization_penalty>
0.00148639

> <r_ionizer_Ionization_penalty_charging>
0.00148639

> <r_ionizer_Ionization_penalty_neutral>
0

$$$$
ZINC001258448720
                    3D
 Structure written by MMmdl.
 42 42  0  0  1  0            999 V2000
   -3.4058   -1.9108    1.3057 C   0  0  0  0  0  0
   -3.7759   -1.1305    0.0511 C   0  0  0  0  0  0
   -2.7939    0.0106   -0.2490 C   0  0  0  0  0  0
   -1.4979   -0.4739   -0.9098 C   0  0  0  0  0  0
   -0.5093    0.6653   -1.2077 C   0  0  0  0  0  0
    0.3800    1.1418   -0.0323 C   0  0  2  0  0  0
    1.1027    2.4699   -0.3936 C   0  0  0  0  0  0
    0.2059    3.6998   -0.2798 C   0  0  0  0  0  0
    1.0453   -0.5458    1.6499 C   0  0  0  0  0  0
    1.8888   -1.8200    1.6078 C   0  0  0  0  0  0
    2.8509   -1.6119    0.4503 C   0  0  0  0  0  0
    2.0597   -0.7194   -0.5020 C   0  0  2  0  0  0
    3.0122   -0.0880   -1.5213 C   0  0  0  0  0  0
    3.5964   -1.0768   -2.2545 F   0  0  0  0  0  0
   -3.3971   -1.2472    2.1733 H   0  0  0  0  0  0
   -2.4218   -2.3819    1.2181 H   0  0  0  0  0  0
   -4.1384   -2.7026    1.4905 H   0  0  0  0  0  0
   -3.8511   -1.8131   -0.8032 H   0  0  0  0  0  0
   -4.7804   -0.7093    0.2013 H   0  0  0  0  0  0
   -2.5759    0.5711    0.6657 H   0  0  0  0  0  0
   -3.2898    0.7086   -0.9348 H   0  0  0  0  0  0
   -1.7658   -0.9362   -1.8671 H   0  0  0  0  0  0
   -1.0323   -1.2637   -0.3227 H   0  0  0  0  0  0
    0.1331    0.3401   -2.0297 H   0  0  0  0  0  0
   -1.0710    1.5206   -1.6129 H   0  0  0  0  0  0
   -0.2769    1.3811    0.8125 H   0  0  0  0  0  0
    1.5290    2.4319   -1.4013 H   0  0  0  0  0  0
    1.9412    2.6294    0.2962 H   0  0  0  0  0  0
    0.8254    4.5918   -0.1462 H   0  0  0  0  0  0
   -0.3989    3.8551   -1.1813 H   0  0  0  0  0  0
   -0.4649    3.6336    0.5821 H   0  0  0  0  0  0
   -0.0161   -0.8014    1.7143 H   0  0  0  0  0  0
    1.2931    0.0540    2.5375 H   0  0  0  0  0  0
    2.4183   -2.0058    2.5475 H   0  0  0  0  0  0
    1.2389   -2.6814    1.3994 H   0  0  0  0  0  0
    3.1526   -2.5598   -0.0078 H   0  0  0  0  0  0
    3.7601   -1.1070    0.8074 H   0  0  0  0  0  0
    1.3385   -1.3594   -1.0223 H   0  0  0  0  0  0
    3.8101    0.4911   -1.0435 H   0  0  0  0  0  0
    2.4811    0.5593   -2.2267 H   0  0  0  0  0  0
    1.4943    0.2347    0.4997 N   0  3  1  0  0  0
    2.2575    0.8488    0.8071 H   0  0  0  0  0  0
  1  2  1  0  0  0
  1 15  1  0  0  0
  1 16  1  0  0  0
  1 17  1  0  0  0
  2  3  1  0  0  0
  2 18  1  0  0  0
  2 19  1  0  0  0
  3  4  1  0  0  0
  3 20  1  0  0  0
  3 21  1  0  0  0
  4  5  1  0  0  0
  4 22  1  0  0  0
  4 23  1  0  0  0
  5  6  1  0  0  0
  5 24  1  0  0  0
  5 25  1  0  0  0
  6  7  1  0  0  0
  6 26  1  0  0  0
  6 41  1  0  0  0
  7  8  1  0  0  0
  7 27  1  0  0  0
  7 28  1  0  0  0
  8 29  1  0  0  0
  8 30  1  0  0  0
  8 31  1  0  0  0
  9 10  1  0  0  0
  9 32  1  0  0  0
  9 33  1  0  0  0
  9 41  1  0  0  0
 10 11  1  0  0  0
 10 34  1  0  0  0
 10 35  1  0  0  0
 11 12  1  0  0  0
 11 36  1  0  0  0
 11 37  1  0  0  0
 12 13  1  0  0  0
 12 38  1  0  0  0
 12 41  1  0  0  0
 13 14  1  0  0  0
 13 39  1  0  0  0
 13 40  1  0  0  0
 41 42  1  0  0  0
M  CHG  1  41   1
M  END
> <energy>
36.1109

> <chiral flag>
0

> <version>
0

> <i_ionizer_Ion_state_n>
1

> <i_ionizer_Tot_Q>
1

> <s_ionizer_Ion_centers>
41

> <s_ionizer_Ion_types>
N5

> <s_ionizer_Ion_ctrs_in>
9

> <r_ionizer_Ionization_penalty>
0.00148639

> <r_ionizer_Ionization_penalty_charging>
0.00148639

> <r_ionizer_Ionization_penalty_neutral>
0

$$$$
ZINC001258448789
                    3D
 Structure written by MMmdl.
 39 41  0  0  1  0            999 V2000
   -2.8910   -1.3528    1.4185 C   0  0  0  0  0  0
   -2.0989   -0.3237    0.6004 C   0  0  2  0  0  0
   -2.8642    0.0064   -0.7050 C   0  0  0  0  0  0
   -4.0107    0.9543   -0.4726 C   0  0  0  0  0  0
   -3.7801    2.4447   -0.4540 C   0  0  0  0  0  0
   -4.4980    1.8086   -1.6129 C   0  0  0  0  0  0
    0.1959    0.1045   -0.1540 C   0  0  0  0  0  0
    1.5404   -0.5073   -0.5263 C   0  0  0  0  0  0
    1.5148   -1.2672   -1.6576 N   0  0  0  0  0  0
    2.6728   -1.7937   -2.0927 C   0  0  0  0  0  0
    3.8860   -1.5968   -1.4651 C   0  0  0  0  0  0
    3.9260   -0.8295   -0.2988 C   0  0  0  0  0  0
    5.1475   -0.6128    0.3651 C   0  0  0  0  0  0
    5.2096    0.1671    1.5183 C   0  0  0  0  0  0
    4.0502    0.7347    2.0271 C   0  0  0  0  0  0
    2.8265    0.5170    1.3872 C   0  0  0  0  0  0
    2.7311   -0.2616    0.2068 C   0  0  0  0  0  0
   -2.3438   -1.6512    2.3201 H   0  0  0  0  0  0
   -3.8505   -0.9399    1.7449 H   0  0  0  0  0  0
   -3.0970   -2.2580    0.8374 H   0  0  0  0  0  0
   -1.9866    0.5766    1.2200 H   0  0  0  0  0  0
   -3.2460   -0.9132   -1.1661 H   0  0  0  0  0  0
   -2.1973    0.4597   -1.4451 H   0  0  0  0  0  0
   -4.7639    0.5463    0.1901 H   0  0  0  0  0  0
   -4.3613    3.0438    0.2391 H   0  0  0  0  0  0
   -2.7778    2.8170   -0.6278 H   0  0  0  0  0  0
   -3.9802    1.7425   -2.5637 H   0  0  0  0  0  0
   -5.5652    1.9675   -1.7024 H   0  0  0  0  0  0
   -0.1642    0.5925   -1.0654 H   0  0  0  0  0  0
    0.2999    0.9032    0.5845 H   0  0  0  0  0  0
    2.5932   -2.3920   -2.9966 H   0  0  0  0  0  0
    4.7820   -2.0377   -1.8895 H   0  0  0  0  0  0
    6.0663   -1.0568   -0.0152 H   0  0  0  0  0  0
    6.1609    0.3275    2.0171 H   0  0  0  0  0  0
    4.0915    1.3486    2.9223 H   0  0  0  0  0  0
    1.9473    0.9717    1.8333 H   0  0  0  0  0  0
   -0.7675   -0.9188    0.3286 N   0  3  0  0  0  0
   -0.4055   -1.3367    1.1938 H   0  0  0  0  0  0
   -0.8674   -1.6476   -0.3878 H   0  0  0  0  0  0
  1  2  1  0  0  0
  1 18  1  0  0  0
  1 19  1  0  0  0
  1 20  1  0  0  0
  2  3  1  0  0  0
  2 21  1  0  0  0
  2 37  1  0  0  0
  3  4  1  0  0  0
  3 22  1  0  0  0
  3 23  1  0  0  0
  4  5  1  0  0  0
  4  6  1  0  0  0
  4 24  1  0  0  0
  5  6  1  0  0  0
  5 25  1  0  0  0
  5 26  1  0  0  0
  6 27  1  0  0  0
  6 28  1  0  0  0
  7  8  1  0  0  0
  7 29  1  0  0  0
  7 30  1  0  0  0
  7 37  1  0  0  0
  8  9  2  0  0  0
  8 17  1  0  0  0
  9 10  1  0  0  0
 10 11  2  0  0  0
 10 31  1  0  0  0
 11 12  1  0  0  0
 11 32  1  0  0  0
 12 13  2  0  0  0
 12 17  1  0  0  0
 13 14  1  0  0  0
 13 33  1  0  0  0
 14 15  2  0  0  0
 14 34  1  0  0  0
 15 16  1  0  0  0
 15 35  1  0  0  0
 16 17  2  0  0  0
 16 36  1  0  0  0
 37 38  1  0  0  0
 37 39  1  0  0  0
M  CHG  1  37   1
M  END
> <energy>
86.2592

> <chiral flag>
0

> <version>
0

> <i_ionizer_Ion_state_n>
1

> <i_ionizer_Tot_Q>
1

> <s_ionizer_Ion_centers>
37

> <s_ionizer_Ion_types>
N5

> <s_ionizer_Ion_ctrs_in>
7

> <r_ionizer_Ionization_penalty>
0.000148807

> <r_ionizer_Ionization_penalty_charging>
0.000148807

> <r_ionizer_Ionization_penalty_neutral>
0

$$$$
ZINC001258448791
                    3D
 Structure written by MMmdl.
 39 41  0  0  1  0            999 V2000
   -2.0649    0.7020    2.7052 C   0  0  0  0  0  0
   -1.7217   -0.4568    1.7620 C   0  0  1  0  0  0
   -2.8820   -0.7491    0.7758 C   0  0  0  0  0  0
   -3.1372    0.3180   -0.2565 C   0  0  0  0  0  0
   -3.1160   -0.0204   -1.7301 C   0  0  0  0  0  0
   -4.4209    0.2618   -1.0487 C   0  0  0  0  0  0
   -0.0303   -1.0228    0.0536 C   0  0  0  0  0  0
    1.4705   -1.0887   -0.1993 C   0  0  0  0  0  0
    1.9994   -2.3452   -0.1311 N   0  0  0  0  0  0
    3.3156   -2.4860   -0.3655 C   0  0  0  0  0  0
    4.1554   -1.4289   -0.6593 C   0  0  0  0  0  0
    3.6246   -0.1377   -0.7242 C   0  0  0  0  0  0
    4.4554    0.9616   -1.0037 C   0  0  0  0  0  0
    3.9335    2.2512   -1.0760 C   0  0  0  0  0  0
    2.5772    2.4631   -0.8674 C   0  0  0  0  0  0
    1.7432    1.3808   -0.5829 C   0  0  0  0  0  0
    2.2437    0.0602   -0.4993 C   0  0  0  0  0  0
   -1.2738    0.8415    3.4524 H   0  0  0  0  0  0
   -2.9982    0.5008    3.2403 H   0  0  0  0  0  0
   -2.1792    1.6526    2.1738 H   0  0  0  0  0  0
   -1.6182   -1.3542    2.3858 H   0  0  0  0  0  0
   -2.6930   -1.7071    0.2786 H   0  0  0  0  0  0
   -3.7987   -0.8961    1.3605 H   0  0  0  0  0  0
   -2.7956    1.3018    0.0409 H   0  0  0  0  0  0
   -2.7327    0.7258   -2.4164 H   0  0  0  0  0  0
   -2.9155   -1.0432   -2.0287 H   0  0  0  0  0  0
   -4.9206    1.1964   -1.2805 H   0  0  0  0  0  0
   -5.1022   -0.5657   -0.8827 H   0  0  0  0  0  0
   -0.3769   -2.0508    0.2202 H   0  0  0  0  0  0
   -0.5025   -0.6567   -0.8643 H   0  0  0  0  0  0
    3.6905   -3.5035   -0.3126 H   0  0  0  0  0  0
    5.2067   -1.6201   -0.8412 H   0  0  0  0  0  0
    5.5228    0.8192   -1.1633 H   0  0  0  0  0  0
    4.5887    3.0907   -1.2934 H   0  0  0  0  0  0
    2.1640    3.4677   -0.9169 H   0  0  0  0  0  0
    0.6887    1.5820   -0.4118 H   0  0  0  0  0  0
   -0.3811   -0.1386    1.1986 N   0  3  0  0  0  0
   -0.3804    0.8363    0.8763 H   0  0  0  0  0  0
    0.3241   -0.2559    1.9356 H   0  0  0  0  0  0
  1  2  1  0  0  0
  1 18  1  0  0  0
  1 19  1  0  0  0
  1 20  1  0  0  0
  2  3  1  0  0  0
  2 21  1  0  0  0
  2 37  1  0  0  0
  3  4  1  0  0  0
  3 22  1  0  0  0
  3 23  1  0  0  0
  4  5  1  0  0  0
  4  6  1  0  0  0
  4 24  1  0  0  0
  5  6  1  0  0  0
  5 25  1  0  0  0
  5 26  1  0  0  0
  6 27  1  0  0  0
  6 28  1  0  0  0
  7  8  1  0  0  0
  7 29  1  0  0  0
  7 30  1  0  0  0
  7 37  1  0  0  0
  8  9  2  0  0  0
  8 17  1  0  0  0
  9 10  1  0  0  0
 10 11  2  0  0  0
 10 31  1  0  0  0
 11 12  1  0  0  0
 11 32  1  0  0  0
 12 13  2  0  0  0
 12 17  1  0  0  0
 13 14  1  0  0  0
 13 33  1  0  0  0
 14 15  2  0  0  0
 14 34  1  0  0  0
 15 16  1  0  0  0
 15 35  1  0  0  0
 16 17  2  0  0  0
 16 36  1  0  0  0
 37 38  1  0  0  0
 37 39  1  0  0  0
M  CHG  1  37   1
M  END
> <energy>
84.7231

> <chiral flag>
0

> <version>
0

> <i_ionizer_Ion_state_n>
1

> <i_ionizer_Tot_Q>
1

> <s_ionizer_Ion_centers>
37

> <s_ionizer_Ion_types>
N5

> <s_ionizer_Ion_ctrs_in>
7

> <r_ionizer_Ionization_penalty>
0.000148807

> <r_ionizer_Ionization_penalty_charging>
0.000148807

> <r_ionizer_Ionization_penalty_neutral>
0

$$$$
ZINC001258448795
                    3D
 Structure written by MMmdl.
 42 44  0  0  1  0            999 V2000
    1.2390   -1.2120    2.1861 C   0  0  0  0  0  0
    2.0914   -1.0116    0.9592 C   0  0  0  0  0  0
    3.0642   -1.9871    0.6721 C   0  0  0  0  0  0
    3.8669   -1.8786   -0.4569 C   0  0  0  0  0  0
    3.6977   -0.8073   -1.3240 C   0  0  0  0  0  0
    2.7212    0.1594   -1.0725 C   0  0  0  0  0  0
    1.9087    0.0811    0.0713 C   0  0  0  0  0  0
    0.8444    1.1421    0.3254 C   0  0  1  0  0  0
   -1.5797    0.9596    0.9328 C   0  0  1  0  0  0
   -2.2730    2.2209    0.4161 C   0  0  0  0  0  0
   -2.5708   -0.2286    1.0615 C   0  0  0  0  0  0
   -3.1086   -0.7450   -0.2526 C   0  0  0  0  0  0
   -3.4237   -2.2135   -0.4184 C   0  0  0  0  0  0
   -2.2493   -1.6202   -1.1365 C   0  0  0  0  0  0
    1.1094    2.3629   -0.5600 C   0  0  0  0  0  0
    1.4530    1.9282   -1.9712 C   0  0  0  0  0  0
    2.6525    1.1628   -2.0037 O   0  0  0  0  0  0
    1.7407   -1.8615    2.9116 H   0  0  0  0  0  0
    1.0517   -0.2700    2.7039 H   0  0  0  0  0  0
    0.2861   -1.6787    1.9199 H   0  0  0  0  0  0
    3.1996   -2.8451    1.3275 H   0  0  0  0  0  0
    4.6235   -2.6300   -0.6633 H   0  0  0  0  0  0
    4.3134   -0.7327   -2.2163 H   0  0  0  0  0  0
    0.9410    1.4750    1.3685 H   0  0  0  0  0  0
   -1.2214    1.1663    1.9475 H   0  0  0  0  0  0
   -1.6359    3.1003    0.5537 H   0  0  0  0  0  0
   -2.5190    2.1536   -0.6491 H   0  0  0  0  0  0
   -3.2040    2.4043    0.9653 H   0  0  0  0  0  0
   -3.4171    0.0780    1.6915 H   0  0  0  0  0  0
   -2.0749   -1.0499    1.6006 H   0  0  0  0  0  0
   -3.7746   -0.0393   -0.7378 H   0  0  0  0  0  0
   -3.2194   -2.8801    0.4103 H   0  0  0  0  0  0
   -4.2712   -2.5088   -1.0277 H   0  0  0  0  0  0
   -2.3141   -1.4678   -2.2046 H   0  0  0  0  0  0
   -1.2571   -1.8941   -0.7889 H   0  0  0  0  0  0
    1.9594    2.9187   -0.1430 H   0  0  0  0  0  0
    0.2606    3.0506   -0.5653 H   0  0  0  0  0  0
    1.6197    2.8168   -2.5917 H   0  0  0  0  0  0
    0.6430    1.3569   -2.4422 H   0  0  0  0  0  0
   -0.4725    0.4994    0.0466 N   0  3  0  0  0  0
   -0.7316    0.7056   -0.9253 H   0  0  0  0  0  0
   -0.3666   -0.5151    0.1647 H   0  0  0  0  0  0
  1  2  1  0  0  0
  1 18  1  0  0  0
  1 19  1  0  0  0
  1 20  1  0  0  0
  2  3  2  0  0  0
  2  7  1  0  0  0
  3  4  1  0  0  0
  3 21  1  0  0  0
  4  5  2  0  0  0
  4 22  1  0  0  0
  5  6  1  0  0  0
  5 23  1  0  0  0
  6  7  2  0  0  0
  6 17  1  0  0  0
  7  8  1  0  0  0
  8 15  1  0  0  0
  8 24  1  0  0  0
  8 40  1  0  0  0
  9 10  1  0  0  0
  9 11  1  0  0  0
  9 25  1  0  0  0
  9 40  1  0  0  0
 10 26  1  0  0  0
 10 27  1  0  0  0
 10 28  1  0  0  0
 11 12  1  0  0  0
 11 29  1  0  0  0
 11 30  1  0  0  0
 12 13  1  0  0  0
 12 14  1  0  0  0
 12 31  1  0  0  0
 13 14  1  0  0  0
 13 32  1  0  0  0
 13 33  1  0  0  0
 14 34  1  0  0  0
 14 35  1  0  0  0
 15 16  1  0  0  0
 15 36  1  0  0  0
 15 37  1  0  0  0
 16 17  1  0  0  0
 16 38  1  0  0  0
 16 39  1  0  0  0
 40 41  1  0  0  0
 40 42  1  0  0  0
M  CHG  1  40   1
M  END
> <energy>
49.4466

> <chiral flag>
0

> <version>
0

> <i_ionizer_Ion_state_n>
1

> <i_ionizer_Tot_Q>
1

> <s_ionizer_Ion_centers>
40

> <s_ionizer_Ion_types>
N5

> <s_ionizer_Ion_ctrs_in>
9

> <r_ionizer_Ionization_penalty>
0.000148807

> <r_ionizer_Ionization_penalty_charging>
0.000148807

> <r_ionizer_Ionization_penalty_neutral>
0

$$$$
ZINC001258448800
                    3D
 Structure written by MMmdl.
 42 44  0  0  1  0            999 V2000
    2.0149   -1.0810    2.3977 C   0  0  0  0  0  0
    2.3094   -0.8174    0.9439 C   0  0  0  0  0  0
    3.1236   -1.7375    0.2619 C   0  0  0  0  0  0
    3.4755   -1.5303   -1.0690 C   0  0  0  0  0  0
    2.9988   -0.4134   -1.7423 C   0  0  0  0  0  0
    2.1514    0.4849   -1.0946 C   0  0  0  0  0  0
    1.7873    0.3043    0.2495 C   0  0  0  0  0  0
    0.9098    1.3342    0.9269 C   0  0  1  0  0  0
   -1.4381    0.3636    0.8337 C   0  0  2  0  0  0
   -2.5361    0.0870    1.8742 C   0  0  0  0  0  0
   -1.2317   -0.8710   -0.0690 C   0  0  0  0  0  0
   -2.4746   -1.2785   -0.8269 C   0  0  0  0  0  0
   -2.4731   -1.1865   -2.3386 C   0  0  0  0  0  0
   -3.3706   -0.2853   -1.5402 C   0  0  0  0  0  0
    0.5913    2.5327    0.0287 C   0  0  0  0  0  0
    0.5076    2.1158   -1.4243 C   0  0  0  0  0  0
    1.7379    1.5417   -1.8632 O   0  0  0  0  0  0
    1.0177   -1.5141    2.5236 H   0  0  0  0  0  0
    2.0965   -0.1614    2.9909 H   0  0  0  0  0  0
    2.7385   -1.7889    2.8228 H   0  0  0  0  0  0
    3.4984   -2.6213    0.7743 H   0  0  0  0  0  0
    4.1315   -2.2301   -1.5767 H   0  0  0  0  0  0
    3.2766   -0.2347   -2.7774 H   0  0  0  0  0  0
    1.5325    1.7420    1.7384 H   0  0  0  0  0  0
   -1.7828    1.2048    0.2268 H   0  0  0  0  0  0
   -3.4568   -0.2894    1.4164 H   0  0  0  0  0  0
   -2.2047   -0.6495    2.6164 H   0  0  0  0  0  0
   -2.7901    1.0090    2.4096 H   0  0  0  0  0  0
   -0.4414   -0.6878   -0.7965 H   0  0  0  0  0  0
   -0.8955   -1.7260    0.5302 H   0  0  0  0  0  0
   -2.9517   -2.1390   -0.3683 H   0  0  0  0  0  0
   -1.6263   -0.7288   -2.8389 H   0  0  0  0  0  0
   -2.9253   -1.9937   -2.9027 H   0  0  0  0  0  0
   -3.1394    0.7724   -1.5365 H   0  0  0  0  0  0
   -4.4377   -0.4877   -1.5449 H   0  0  0  0  0  0
    1.4050    3.2644    0.1350 H   0  0  0  0  0  0
   -0.3192    3.0521    0.3441 H   0  0  0  0  0  0
    0.3276    2.9993   -2.0446 H   0  0  0  0  0  0
   -0.3143    1.4188   -1.6203 H   0  0  0  0  0  0
   -0.2630    0.7648    1.6881 N   0  3  0  0  0  0
    0.0600   -0.0663    2.1972 H   0  0  0  0  0  0
   -0.5831    1.4738    2.3584 H   0  0  0  0  0  0
  1  2  1  0  0  0
  1 18  1  0  0  0
  1 19  1  0  0  0
  1 20  1  0  0  0
  2  3  2  0  0  0
  2  7  1  0  0  0
  3  4  1  0  0  0
  3 21  1  0  0  0
  4  5  2  0  0  0
  4 22  1  0  0  0
  5  6  1  0  0  0
  5 23  1  0  0  0
  6  7  2  0  0  0
  6 17  1  0  0  0
  7  8  1  0  0  0
  8 15  1  0  0  0
  8 24  1  0  0  0
  8 40  1  0  0  0
  9 10  1  0  0  0
  9 11  1  0  0  0
  9 25  1  0  0  0
  9 40  1  0  0  0
 10 26  1  0  0  0
 10 27  1  0  0  0
 10 28  1  0  0  0
 11 12  1  0  0  0
 11 29  1  0  0  0
 11 30  1  0  0  0
 12 13  1  0  0  0
 12 14  1  0  0  0
 12 31  1  0  0  0
 13 14  1  0  0  0
 13 32  1  0  0  0
 13 33  1  0  0  0
 14 34  1  0  0  0
 14 35  1  0  0  0
 15 16  1  0  0  0
 15 36  1  0  0  0
 15 37  1  0  0  0
 16 17  1  0  0  0
 16 38  1  0  0  0
 16 39  1  0  0  0
 40 41  1  0  0  0
 40 42  1  0  0  0
M  CHG  1  40   1
M  END
> <energy>
51.7741

> <chiral flag>
0

> <version>
0

> <i_ionizer_Ion_state_n>
1

> <i_ionizer_Tot_Q>
1

> <s_ionizer_Ion_centers>
40

> <s_ionizer_Ion_types>
N5

> <s_ionizer_Ion_ctrs_in>
9

> <r_ionizer_Ionization_penalty>
0.000148807

> <r_ionizer_Ionization_penalty_charging>
0.000148807

> <r_ionizer_Ionization_penalty_neutral>
0

$$$$
ZINC001258448804
                    3D
 Structure written by MMmdl.
 42 43  0  0  1  0            999 V2000
    0.8539    1.3612    3.0848 C   0  0  0  0  0  0
    1.5716    0.4996    2.0542 C   0  0  0  0  0  0
    0.7101    0.1852    0.8079 C   0  0  2  0  0  0
   -0.8847    1.5087   -0.6082 C   0  0  1  0  0  0
   -0.8344    2.4322   -1.8412 C   0  0  0  0  0  0
   -1.7135    0.2401   -0.9569 C   0  0  0  0  0  0
   -3.0963    0.3505   -0.3609 C   0  0  0  0  0  0
   -3.3223   -0.1146    1.0564 C   0  0  0  0  0  0
   -3.9317   -0.8712   -0.0910 C   0  0  0  0  0  0
    1.2669   -1.0546    0.0942 C   0  0  0  0  0  0
    0.6215   -2.2176    0.4066 N   0  0  0  0  0  0
    0.9952   -3.3534   -0.2154 C   0  0  0  0  0  0
    2.0300   -3.4202   -1.1305 C   0  0  0  0  0  0
    2.7101   -2.2469   -1.4192 C   0  0  0  0  0  0
    2.3391   -1.0362   -0.8135 C   0  0  0  0  0  0
    3.0289    0.2271   -1.2355 C   0  0  0  0  0  0
    1.3948    1.3349    4.0374 H   0  0  0  0  0  0
   -0.1623    0.9995    3.2773 H   0  0  0  0  0  0
    0.7972    2.4024    2.7547 H   0  0  0  0  0  0
    2.5157    0.9794    1.7774 H   0  0  0  0  0  0
    1.8411   -0.4424    2.5462 H   0  0  0  0  0  0
   -0.2617   -0.1052    1.2244 H   0  0  0  0  0  0
   -1.4165    2.0622    0.1769 H   0  0  0  0  0  0
   -1.8058    2.4673   -2.3538 H   0  0  0  0  0  0
   -0.0955    2.0896   -2.5803 H   0  0  0  0  0  0
   -0.5818    3.4627   -1.5590 H   0  0  0  0  0  0
   -1.2566   -0.6814   -0.5920 H   0  0  0  0  0  0
   -1.7992    0.1110   -2.0445 H   0  0  0  0  0  0
   -3.6189    1.2427   -0.6904 H   0  0  0  0  0  0
   -2.5185   -0.6042    1.5959 H   0  0  0  0  0  0
   -3.9654    0.4868    1.6870 H   0  0  0  0  0  0
   -5.0037   -0.7937   -0.2402 H   0  0  0  0  0  0
   -3.5157   -1.8449   -0.3240 H   0  0  0  0  0  0
    0.4051   -4.2300    0.0268 H   0  0  0  0  0  0
    2.2793   -4.3526   -1.6210 H   0  0  0  0  0  0
    3.5239   -2.2717   -2.1460 H   0  0  0  0  0  0
    3.2391    0.8848   -0.3877 H   0  0  0  0  0  0
    3.9934    0.0136   -1.7073 H   0  0  0  0  0  0
    2.4153    0.7610   -1.9692 H   0  0  0  0  0  0
    0.5275    1.3673   -0.1103 N   0  3  0  0  0  0
    0.7820    2.2211    0.4001 H   0  0  0  0  0  0
    1.1501    1.2535   -0.9188 H   0  0  0  0  0  0
  1  2  1  0  0  0
  1 17  1  0  0  0
  1 18  1  0  0  0
  1 19  1  0  0  0
  2  3  1  0  0  0
  2 20  1  0  0  0
  2 21  1  0  0  0
  3 10  1  0  0  0
  3 22  1  0  0  0
  3 40  1  0  0  0
  4  5  1  0  0  0
  4  6  1  0  0  0
  4 23  1  0  0  0
  4 40  1  0  0  0
  5 24  1  0  0  0
  5 25  1  0  0  0
  5 26  1  0  0  0
  6  7  1  0  0  0
  6 27  1  0  0  0
  6 28  1  0  0  0
  7  8  1  0  0  0
  7  9  1  0  0  0
  7 29  1  0  0  0
  8  9  1  0  0  0
  8 30  1  0  0  0
  8 31  1  0  0  0
  9 32  1  0  0  0
  9 33  1  0  0  0
 10 11  2  0  0  0
 10 15  1  0  0  0
 11 12  1  0  0  0
 12 13  2  0  0  0
 12 34  1  0  0  0
 13 14  1  0  0  0
 13 35  1  0  0  0
 14 15  2  0  0  0
 14 36  1  0  0  0
 15 16  1  0  0  0
 16 37  1  0  0  0
 16 38  1  0  0  0
 16 39  1  0  0  0
 40 41  1  0  0  0
 40 42  1  0  0  0
M  CHG  1  40   1
M  END
> <energy>
78.3671

> <chiral flag>
0

> <version>
0

> <i_ionizer_Ion_state_n>
1

> <i_ionizer_Tot_Q>
1

> <s_ionizer_Ion_centers>
40

> <s_ionizer_Ion_types>
N5

> <s_ionizer_Ion_ctrs_in>
4

> <r_ionizer_Ionization_penalty>
0.0075612

> <r_ionizer_Ionization_penalty_charging>
0.000148807

> <r_ionizer_Ionization_penalty_neutral>
0.00741239

$$$$
ZINC001258448807
                    3D
 Structure written by MMmdl.
 42 43  0  0  1  0            999 V2000
    3.0822   -1.3759   -0.7560 C   0  0  0  0  0  0
    1.5821   -1.2577   -0.5015 C   0  0  0  0  0  0
    1.2632   -0.4117    0.7459 C   0  0  1  0  0  0
   -1.0125   -1.5572    1.0756 C   0  0  1  0  0  0
   -1.7518   -2.1782    2.2771 C   0  0  0  0  0  0
   -1.9319   -0.5003    0.4273 C   0  0  0  0  0  0
   -1.8272   -0.4531   -1.0734 C   0  0  0  0  0  0
   -2.1299   -1.6505   -1.9401 C   0  0  0  0  0  0
   -3.0778   -0.4894   -1.9167 C   0  0  0  0  0  0
    1.0376    1.1153    0.6959 C   0  0  0  0  0  0
    0.6131    1.5857    1.9183 N   0  0  0  0  0  0
    0.4437    2.9099    2.1094 C   0  0  0  0  0  0
    0.6866    3.8490    1.1361 C   0  0  0  0  0  0
    1.0995    3.3909   -0.1039 C   0  0  0  0  0  0
    1.2745    2.0113   -0.3603 C   0  0  0  0  0  0
    1.6778    1.6537   -1.7586 C   0  0  0  0  0  0
    3.5951   -0.4146   -0.7239 H   0  0  0  0  0  0
    3.5467   -2.0118    0.0047 H   0  0  0  0  0  0
    3.2637   -1.8381   -1.7299 H   0  0  0  0  0  0
    1.2428   -2.2917   -0.3567 H   0  0  0  0  0  0
    1.0520   -0.9008   -1.3863 H   0  0  0  0  0  0
    2.1728   -0.4705    1.3671 H   0  0  0  0  0  0
   -0.8290   -2.3795    0.3734 H   0  0  0  0  0  0
   -1.1527   -2.9702    2.7422 H   0  0  0  0  0  0
   -1.9776   -1.4243    3.0408 H   0  0  0  0  0  0
   -2.6984   -2.6256    1.9587 H   0  0  0  0  0  0
   -1.7319    0.4989    0.8308 H   0  0  0  0  0  0
   -2.9749   -0.7054    0.6945 H   0  0  0  0  0  0
   -1.0358    0.2125   -1.3928 H   0  0  0  0  0  0
   -2.4453   -2.5745   -1.4675 H   0  0  0  0  0  0
   -1.5294   -1.8000   -2.8328 H   0  0  0  0  0  0
   -3.1216    0.1659   -2.7800 H   0  0  0  0  0  0
   -4.0392   -0.6360   -1.4367 H   0  0  0  0  0  0
    0.1029    3.1984    3.0986 H   0  0  0  0  0  0
    0.5586    4.9077    1.3356 H   0  0  0  0  0  0
    1.2902    4.1249   -0.8852 H   0  0  0  0  0  0
    2.6574    1.1822   -1.7881 H   0  0  0  0  0  0
    1.7647    2.5463   -2.3902 H   0  0  0  0  0  0
    0.9262    1.0254   -2.2383 H   0  0  0  0  0  0
    0.2752   -1.0846    1.7031 N   0  3  0  0  0  0
    0.7416   -1.8988    2.1199 H   0  0  0  0  0  0
    0.0391   -0.4107    2.4408 H   0  0  0  0  0  0
  1  2  1  0  0  0
  1 17  1  0  0  0
  1 18  1  0  0  0
  1 19  1  0  0  0
  2  3  1  0  0  0
  2 20  1  0  0  0
  2 21  1  0  0  0
  3 10  1  0  0  0
  3 22  1  0  0  0
  3 40  1  0  0  0
  4  5  1  0  0  0
  4  6  1  0  0  0
  4 23  1  0  0  0
  4 40  1  0  0  0
  5 24  1  0  0  0
  5 25  1  0  0  0
  5 26  1  0  0  0
  6  7  1  0  0  0
  6 27  1  0  0  0
  6 28  1  0  0  0
  7  8  1  0  0  0
  7  9  1  0  0  0
  7 29  1  0  0  0
  8  9  1  0  0  0
  8 30  1  0  0  0
  8 31  1  0  0  0
  9 32  1  0  0  0
  9 33  1  0  0  0
 10 11  2  0  0  0
 10 15  1  0  0  0
 11 12  1  0  0  0
 12 13  2  0  0  0
 12 34  1  0  0  0
 13 14  1  0  0  0
 13 35  1  0  0  0
 14 15  2  0  0  0
 14 36  1  0  0  0
 15 16  1  0  0  0
 16 37  1  0  0  0
 16 38  1  0  0  0
 16 39  1  0  0  0
 40 41  1  0  0  0
 40 42  1  0  0  0
M  CHG  1  40   1
M  END
> <energy>
85.4856

> <chiral flag>
0

> <version>
0

> <i_ionizer_Ion_state_n>
1

> <i_ionizer_Tot_Q>
1

> <s_ionizer_Ion_centers>
40

> <s_ionizer_Ion_types>
N5

> <s_ionizer_Ion_ctrs_in>
4

> <r_ionizer_Ionization_penalty>
0.0075612

> <r_ionizer_Ionization_penalty_charging>
0.000148807

> <r_ionizer_Ionization_penalty_neutral>
0.00741239

$$$$
ZINC001258448811
                    3D
 Structure written by MMmdl.
 42 43  0  0  1  0            999 V2000
    3.6052   -1.7784   -0.5584 C   0  0  0  0  0  0
    3.0373   -0.4188   -0.1644 C   0  0  0  0  0  0
    1.5640   -0.4844    0.2981 C   0  0  1  0  0  0
   -0.6814   -1.2397   -0.3479 C   0  0  2  0  0  0
   -0.6902   -2.7632   -0.1663 C   0  0  0  0  0  0
   -1.7345   -0.7915   -1.3842 C   0  0  0  0  0  0
   -3.1365   -0.8877   -0.8479 C   0  0  0  0  0  0
   -4.2000    0.0615   -1.3343 C   0  0  0  0  0  0
   -3.6612    0.1914    0.0645 C   0  0  0  0  0  0
    1.1843    0.7802    1.0774 C   0  0  0  0  0  0
    1.0558    0.5813    2.4231 N   0  0  0  0  0  0
    0.6992    1.6278    3.1947 C   0  0  0  0  0  0
    0.4549    2.8923    2.7023 C   0  0  0  0  0  0
    0.5909    3.0960    1.3351 C   0  0  0  0  0  0
    0.9636    2.0384    0.4898 C   0  0  0  0  0  0
    1.1112    2.3130   -0.9785 C   0  0  0  0  0  0
    4.6611   -1.6762   -0.8275 H   0  0  0  0  0  0
    3.0833   -2.2044   -1.4190 H   0  0  0  0  0  0
    3.5363   -2.4852    0.2746 H   0  0  0  0  0  0
    3.1577    0.2639   -1.0122 H   0  0  0  0  0  0
    3.6562   -0.0175    0.6486 H   0  0  0  0  0  0
    1.5129   -1.3198    1.0115 H   0  0  0  0  0  0
   -0.9328   -0.7745    0.6129 H   0  0  0  0  0  0
   -1.6446   -3.1059    0.2466 H   0  0  0  0  0  0
   -0.5311   -3.2783   -1.1207 H   0  0  0  0  0  0
    0.0954   -3.0868    0.5250 H   0  0  0  0  0  0
   -1.6541   -1.3895   -2.3009 H   0  0  0  0  0  0
   -1.5380    0.2489   -1.6754 H   0  0  0  0  0  0
   -3.4424   -1.9090   -0.6568 H   0  0  0  0  0  0
   -3.9262    0.8248   -2.0532 H   0  0  0  0  0  0
   -5.2048   -0.3250   -1.4582 H   0  0  0  0  0  0
   -3.0177    1.0362    0.2868 H   0  0  0  0  0  0
   -4.2930   -0.1112    0.8911 H   0  0  0  0  0  0
    0.6079    1.4116    4.2549 H   0  0  0  0  0  0
    0.1665    3.7005    3.3629 H   0  0  0  0  0  0
    0.4050    4.0876    0.9278 H   0  0  0  0  0  0
    0.8205    3.3406   -1.2207 H   0  0  0  0  0  0
    0.4697    1.6667   -1.5793 H   0  0  0  0  0  0
    2.1520    2.1995   -1.2895 H   0  0  0  0  0  0
    0.6511   -0.7948   -0.8396 N   0  3  0  0  0  0
    0.5328    0.0475   -1.4147 H   0  0  0  0  0  0
    1.0657   -1.5422   -1.4086 H   0  0  0  0  0  0
  1  2  1  0  0  0
  1 17  1  0  0  0
  1 18  1  0  0  0
  1 19  1  0  0  0
  2  3  1  0  0  0
  2 20  1  0  0  0
  2 21  1  0  0  0
  3 10  1  0  0  0
  3 22  1  0  0  0
  3 40  1  0  0  0
  4  5  1  0  0  0
  4  6  1  0  0  0
  4 23  1  0  0  0
  4 40  1  0  0  0
  5 24  1  0  0  0
  5 25  1  0  0  0
  5 26  1  0  0  0
  6  7  1  0  0  0
  6 27  1  0  0  0
  6 28  1  0  0  0
  7  8  1  0  0  0
  7  9  1  0  0  0
  7 29  1  0  0  0
  8  9  1  0  0  0
  8 30  1  0  0  0
  8 31  1  0  0  0
  9 32  1  0  0  0
  9 33  1  0  0  0
 10 11  2  0  0  0
 10 15  1  0  0  0
 11 12  1  0  0  0
 12 13  2  0  0  0
 12 34  1  0  0  0
 13 14  1  0  0  0
 13 35  1  0  0  0
 14 15  2  0  0  0
 14 36  1  0  0  0
 15 16  1  0  0  0
 16 37  1  0  0  0
 16 38  1  0  0  0
 16 39  1  0  0  0
 40 41  1  0  0  0
 40 42  1  0  0  0
M  CHG  1  40   1
M  END
> <energy>
69.1303

> <chiral flag>
0

> <version>
0

> <i_ionizer_Ion_state_n>
1

> <i_ionizer_Tot_Q>
1

> <s_ionizer_Ion_centers>
40

> <s_ionizer_Ion_types>
N5

> <s_ionizer_Ion_ctrs_in>
4

> <r_ionizer_Ionization_penalty>
0.0075612

> <r_ionizer_Ionization_penalty_charging>
0.000148807

> <r_ionizer_Ionization_penalty_neutral>
0.00741239

$$$$
ZINC001258448999
                    3D
 Structure written by MMmdl.
 42 43  0  0  1  0            999 V2000
    2.5986   -2.1413    1.5151 C   0  0  0  0  0  0
    2.9372   -1.3448    0.2631 C   0  0  0  0  0  0
    1.7932   -0.5029   -0.3600 C   0  0  2  0  0  0
   -0.6747   -0.9721   -0.0254 C   0  0  2  0  0  0
   -0.7683   -1.5680    1.3821 C   0  0  0  0  0  0
   -1.8491   -1.4714   -0.9118 C   0  0  0  0  0  0
   -3.1554   -0.8126   -0.5478 C   0  0  0  0  0  0
   -4.1809   -0.4902   -1.6093 C   0  0  0  0  0  0
   -3.4174    0.6199   -0.9477 C   0  0  0  0  0  0
    1.5726    0.8608    0.3129 C   0  0  0  0  0  0
    1.7276    0.9128    1.6635 N   0  0  0  0  0  0
    1.4762    2.0770    2.2976 C   0  0  0  0  0  0
    1.0724    3.2289    1.6558 C   0  0  0  0  0  0
    0.9239    3.1857    0.2753 C   0  0  0  0  0  0
    1.1684    1.9929   -0.4228 C   0  0  0  0  0  0
    0.9925    1.9721   -1.9135 C   0  0  0  0  0  0
    2.3065   -1.4984    2.3474 H   0  0  0  0  0  0
    3.4738   -2.7138    1.8379 H   0  0  0  0  0  0
    1.8011   -2.8639    1.3250 H   0  0  0  0  0  0
    3.2838   -2.0675   -0.4902 H   0  0  0  0  0  0
    3.7972   -0.6963    0.4801 H   0  0  0  0  0  0
    2.2051   -0.2525   -1.3464 H   0  0  0  0  0  0
   -0.7878    0.1148    0.0419 H   0  0  0  0  0  0
   -0.5928   -2.6504    1.3732 H   0  0  0  0  0  0
   -0.0389   -1.1125    2.0547 H   0  0  0  0  0  0
   -1.7534   -1.3999    1.8255 H   0  0  0  0  0  0
   -1.6329   -1.2519   -1.9642 H   0  0  0  0  0  0
   -1.9556   -2.5591   -0.8329 H   0  0  0  0  0  0
   -3.5391   -1.1528    0.4082 H   0  0  0  0  0  0
   -3.9533   -0.7077   -2.6458 H   0  0  0  0  0  0
   -5.2332   -0.5884   -1.3607 H   0  0  0  0  0  0
   -2.6784    1.1443   -1.5443 H   0  0  0  0  0  0
   -3.9414    1.2523   -0.2415 H   0  0  0  0  0  0
    1.6168    2.0576    3.3740 H   0  0  0  0  0  0
    0.8725    4.1371    2.2106 H   0  0  0  0  0  0
    0.6027    4.0789   -0.2534 H   0  0  0  0  0  0
    0.3148    1.1672   -2.2149 H   0  0  0  0  0  0
    1.9592    1.8447   -2.4120 H   0  0  0  0  0  0
    0.5585    2.9122   -2.2742 H   0  0  0  0  0  0
    0.6083   -1.3942   -0.6921 N   0  3  0  0  0  0
    0.4654   -1.3778   -1.7087 H   0  0  0  0  0  0
    0.8289   -2.3513   -0.3929 H   0  0  0  0  0  0
  1  2  1  0  0  0
  1 17  1  0  0  0
  1 18  1  0  0  0
  1 19  1  0  0  0
  2  3  1  0  0  0
  2 20  1  0  0  0
  2 21  1  0  0  0
  3 10  1  0  0  0
  3 22  1  0  0  0
  3 40  1  0  0  0
  4  5  1  0  0  0
  4  6  1  0  0  0
  4 23  1  0  0  0
  4 40  1  0  0  0
  5 24  1  0  0  0
  5 25  1  0  0  0
  5 26  1  0  0  0
  6  7  1  0  0  0
  6 27  1  0  0  0
  6 28  1  0  0  0
  7  8  1  0  0  0
  7  9  1  0  0  0
  7 29  1  0  0  0
  8  9  1  0  0  0
  8 30  1  0  0  0
  8 31  1  0  0  0
  9 32  1  0  0  0
  9 33  1  0  0  0
 10 11  2  0  0  0
 10 15  1  0  0  0
 11 12  1  0  0  0
 12 13  2  0  0  0
 12 34  1  0  0  0
 13 14  1  0  0  0
 13 35  1  0  0  0
 14 15  2  0  0  0
 14 36  1  0  0  0
 15 16  1  0  0  0
 16 37  1  0  0  0
 16 38  1  0  0  0
 16 39  1  0  0  0
 40 41  1  0  0  0
 40 42  1  0  0  0
M  CHG  1  40   1
M  END
> <energy>
78.0671

> <chiral flag>
0

> <version>
0

> <i_ionizer_Ion_state_n>
1

> <i_ionizer_Tot_Q>
1

> <s_ionizer_Ion_centers>
40

> <s_ionizer_Ion_types>
N5

> <s_ionizer_Ion_ctrs_in>
4

> <r_ionizer_Ionization_penalty>
0.0075612

> <r_ionizer_Ionization_penalty_charging>
0.000148807

> <r_ionizer_Ionization_penalty_neutral>
0.00741239

$$$$
ZINC001258449060
                    3D
 Structure written by MMmdl.
 45 48  0  0  1  0            999 V2000
   -1.3442    1.8200    1.9951 C   0  0  0  0  0  0
   -1.6149    1.6029    0.5080 C   0  0  1  0  0  0
   -0.8539    2.6285   -0.3635 C   0  0  0  0  0  0
   -1.2819    2.6231   -1.8124 C   0  0  0  0  0  0
   -0.2619    2.6941   -2.9235 C   0  0  0  0  0  0
   -1.1191    3.8868   -2.6219 C   0  0  0  0  0  0
   -0.3568   -0.6464    0.3025 C   0  0  0  0  0  0
    1.0267    0.0215    0.1265 C   0  0  0  0  0  0
    2.1634   -1.0061    0.2776 C   0  0  2  0  0  0
    2.0084   -2.0909   -0.7978 C   0  0  0  0  0  0
    0.6590   -2.8042   -0.6261 C   0  0  1  0  0  0
    0.5853   -3.4413    0.7697 C   0  0  0  0  0  0
    0.7332   -2.3586    1.8482 C   0  0  1  0  0  0
    2.0867   -1.6542    1.6685 C   0  0  0  0  0  0
   -0.4072   -1.3331    1.6949 C   0  0  0  0  0  0
   -0.4736   -1.7740   -0.7689 C   0  0  0  0  0  0
   -0.2898    1.6937    2.2558 H   0  0  0  0  0  0
   -1.9418    1.1299    2.6017 H   0  0  0  0  0  0
   -1.6313    2.8380    2.2860 H   0  0  0  0  0  0
   -2.6770    1.8561    0.3716 H   0  0  0  0  0  0
    0.2282    2.5026   -0.2866 H   0  0  0  0  0  0
   -1.0602    3.6261    0.0412 H   0  0  0  0  0  0
   -2.1807    2.0435   -1.9870 H   0  0  0  0  0  0
    0.7902    2.7542   -2.6690 H   0  0  0  0  0  0
   -0.4645    2.1435   -3.8350 H   0  0  0  0  0  0
   -1.9056    4.1418   -3.3215 H   0  0  0  0  0  0
   -0.6360    4.7461   -2.1678 H   0  0  0  0  0  0
    1.1793    0.8074    0.8719 H   0  0  0  0  0  0
    1.1021    0.4890   -0.8621 H   0  0  0  0  0  0
    3.1314   -0.5044    0.1593 H   0  0  0  0  0  0
    2.8280   -2.8159   -0.7245 H   0  0  0  0  0  0
    2.0704   -1.6409   -1.7944 H   0  0  0  0  0  0
    0.5492   -3.5803   -1.3925 H   0  0  0  0  0  0
   -0.3688   -3.9661    0.8949 H   0  0  0  0  0  0
    1.3782   -4.1921    0.8813 H   0  0  0  0  0  0
    0.6848   -2.8168    2.8432 H   0  0  0  0  0  0
    2.2234   -0.8949    2.4479 H   0  0  0  0  0  0
    2.9023   -2.3784    1.7889 H   0  0  0  0  0  0
   -1.3703   -1.8397    1.8403 H   0  0  0  0  0  0
   -0.3187   -0.5994    2.5013 H   0  0  0  0  0  0
   -1.4388   -2.2909   -0.6825 H   0  0  0  0  0  0
   -0.4425   -1.3396   -1.7775 H   0  0  0  0  0  0
   -1.6067    0.1689    0.0136 N   0  3  0  0  0  0
   -2.4010   -0.3146    0.4490 H   0  0  0  0  0  0
   -1.7355    0.1904   -1.0048 H   0  0  0  0  0  0
  1  2  1  0  0  0
  1 17  1  0  0  0
  1 18  1  0  0  0
  1 19  1  0  0  0
  2  3  1  0  0  0
  2 20  1  0  0  0
  2 43  1  0  0  0
  3  4  1  0  0  0
  3 21  1  0  0  0
  3 22  1  0  0  0
  4  5  1  0  0  0
  4  6  1  0  0  0
  4 23  1  0  0  0
  5  6  1  0  0  0
  5 24  1  0  0  0
  5 25  1  0  0  0
  6 26  1  0  0  0
  6 27  1  0  0  0
  7  8  1  0  0  0
  7 15  1  0  0  0
  7 16  1  0  0  0
  7 43  1  0  0  0
  8  9  1  0  0  0
  8 28  1  0  0  0
  8 29  1  0  0  0
  9 10  1  0  0  0
  9 14  1  0  0  0
  9 30  1  0  0  0
 10 11  1  0  0  0
 10 31  1  0  0  0
 10 32  1  0  0  0
 11 12  1  0  0  0
 11 16  1  0  0  0
 11 33  1  0  0  0
 12 13  1  0  0  0
 12 34  1  0  0  0
 12 35  1  0  0  0
 13 14  1  0  0  0
 13 15  1  0  0  0
 13 36  1  0  0  0
 14 37  1  0  0  0
 14 38  1  0  0  0
 15 39  1  0  0  0
 15 40  1  0  0  0
 16 41  1  0  0  0
 16 42  1  0  0  0
 43 44  1  0  0  0
 43 45  1  0  0  0
M  CHG  1  43   1
M  END
> <energy>
59.0657

> <chiral flag>
0

> <version>
0

> <i_ionizer_Ion_state_n>
1

> <i_ionizer_Tot_Q>
1

> <s_ionizer_Ion_centers>
43

> <s_ionizer_Ion_types>
N5

> <s_ionizer_Ion_ctrs_in>
7

> <r_ionizer_Ionization_penalty>
0.000148807

> <r_ionizer_Ionization_penalty_charging>
0.000148807

> <r_ionizer_Ionization_penalty_neutral>
0

$$$$
ZINC001258449063
                    3D
 Structure written by MMmdl.
 45 48  0  0  1  0            999 V2000
   -2.0147    2.6011   -0.5517 C   0  0  0  0  0  0
   -1.5820    1.1854   -0.1447 C   0  0  2  0  0  0
   -2.7235    0.4572    0.5996 C   0  0  0  0  0  0
   -3.8209    0.0019   -0.3275 C   0  0  0  0  0  0
   -4.7312   -1.1235    0.0919 C   0  0  0  0  0  0
   -3.7302   -1.3384   -1.0099 C   0  0  0  0  0  0
    0.7517    0.4635    0.4122 C   0  0  0  0  0  0
    1.7588    0.6209    1.5865 C   0  0  0  0  0  0
    3.0444   -0.1820    1.3218 C   0  0  2  0  0  0
    3.6988    0.3259    0.0272 C   0  0  0  0  0  0
    2.7298    0.1545   -1.1527 C   0  0  1  0  0  0
    2.3692   -1.3328   -1.3013 C   0  0  0  0  0  0
    1.7139   -1.8508   -0.0104 C   0  0  1  0  0  0
    2.6910   -1.6684    1.1616 C   0  0  0  0  0  0
    0.4301   -1.0472    0.2687 C   0  0  0  0  0  0
    1.4490    0.9647   -0.8800 C   0  0  0  0  0  0
   -2.8496    2.5719   -1.2581 H   0  0  0  0  0  0
   -2.3295    3.1921    0.3158 H   0  0  0  0  0  0
   -1.1933    3.1361   -1.0426 H   0  0  0  0  0  0
   -1.3407    0.6478   -1.0679 H   0  0  0  0  0  0
   -2.3224   -0.4152    1.1324 H   0  0  0  0  0  0
   -3.1568    1.1123    1.3664 H   0  0  0  0  0  0
   -4.2838    0.8205   -0.8658 H   0  0  0  0  0  0
   -5.7788   -1.0588   -0.1808 H   0  0  0  0  0  0
   -4.5526   -1.6075    1.0453 H   0  0  0  0  0  0
   -2.8773   -1.9745   -0.7991 H   0  0  0  0  0  0
   -4.1027   -1.4207   -2.0243 H   0  0  0  0  0  0
    1.3035    0.2784    2.5258 H   0  0  0  0  0  0
    2.0183    1.6785    1.7308 H   0  0  0  0  0  0
    3.7378   -0.0556    2.1608 H   0  0  0  0  0  0
    4.6262   -0.2271   -0.1650 H   0  0  0  0  0  0
    3.9755    1.3819    0.1353 H   0  0  0  0  0  0
    3.2032    0.5127   -2.0738 H   0  0  0  0  0  0
    3.2725   -1.9156   -1.5211 H   0  0  0  0  0  0
    1.6883   -1.4715   -2.1500 H   0  0  0  0  0  0
    1.4663   -2.9125   -0.1225 H   0  0  0  0  0  0
    3.6016   -2.2541    0.9848 H   0  0  0  0  0  0
    2.2427   -2.0509    2.0868 H   0  0  0  0  0  0
   -0.2763   -1.2258   -0.5502 H   0  0  0  0  0  0
   -0.0446   -1.4245    1.1839 H   0  0  0  0  0  0
    0.7813    0.8755   -1.7453 H   0  0  0  0  0  0
    1.7029    2.0288   -0.7885 H   0  0  0  0  0  0
   -0.4207    1.3175    0.7941 N   0  3  0  0  0  0
   -0.1195    2.2991    0.8035 H   0  0  0  0  0  0
   -0.7296    1.0452    1.7347 H   0  0  0  0  0  0
  1  2  1  0  0  0
  1 17  1  0  0  0
  1 18  1  0  0  0
  1 19  1  0  0  0
  2  3  1  0  0  0
  2 20  1  0  0  0
  2 43  1  0  0  0
  3  4  1  0  0  0
  3 21  1  0  0  0
  3 22  1  0  0  0
  4  5  1  0  0  0
  4  6  1  0  0  0
  4 23  1  0  0  0
  5  6  1  0  0  0
  5 24  1  0  0  0
  5 25  1  0  0  0
  6 26  1  0  0  0
  6 27  1  0  0  0
  7  8  1  0  0  0
  7 15  1  0  0  0
  7 16  1  0  0  0
  7 43  1  0  0  0
  8  9  1  0  0  0
  8 28  1  0  0  0
  8 29  1  0  0  0
  9 10  1  0  0  0
  9 14  1  0  0  0
  9 30  1  0  0  0
 10 11  1  0  0  0
 10 31  1  0  0  0
 10 32  1  0  0  0
 11 12  1  0  0  0
 11 16  1  0  0  0
 11 33  1  0  0  0
 12 13  1  0  0  0
 12 34  1  0  0  0
 12 35  1  0  0  0
 13 14  1  0  0  0
 13 15  1  0  0  0
 13 36  1  0  0  0
 14 37  1  0  0  0
 14 38  1  0  0  0
 15 39  1  0  0  0
 15 40  1  0  0  0
 16 41  1  0  0  0
 16 42  1  0  0  0
 43 44  1  0  0  0
 43 45  1  0  0  0
M  CHG  1  43   1
M  END
> <energy>
50.6155

> <chiral flag>
0

> <version>
0

> <i_ionizer_Ion_state_n>
1

> <i_ionizer_Tot_Q>
1

> <s_ionizer_Ion_centers>
43

> <s_ionizer_Ion_types>
N5

> <s_ionizer_Ion_ctrs_in>
7

> <r_ionizer_Ionization_penalty>
0.000148807

> <r_ionizer_Ionization_penalty_charging>
0.000148807

> <r_ionizer_Ionization_penalty_neutral>
0

$$$$
ZINC001258450001
                    3D
 Structure written by MMmdl.
 42 43  0  0  1  0            999 V2000
    1.7009   -2.9702   -0.8999 C   0  0  0  0  0  0
    0.8134   -2.4010    0.2122 C   0  0  0  0  0  0
   -0.4920   -3.2066    0.2907 C   0  0  0  0  0  0
    0.5209   -0.8715    0.0893 C   0  0  1  0  0  0
   -1.4763    0.1609   -0.9206 C   0  0  2  0  0  0
   -2.2733    0.1032   -2.2315 C   0  0  0  0  0  0
   -1.2802    1.6282   -0.4739 C   0  0  0  0  0  0
   -2.4928    2.1593    0.2459 C   0  0  0  0  0  0
   -2.3561    3.3245    1.1885 C   0  0  0  0  0  0
   -2.6377    1.9507    1.7311 C   0  0  0  0  0  0
    1.7792   -0.0407    0.2698 C   0  0  0  0  0  0
    2.2559    0.2579    1.5526 C   0  0  0  0  0  0
    3.4065    1.0261    1.7080 C   0  0  0  0  0  0
    4.0589    1.4693    0.5710 C   0  0  0  0  0  0
    3.6435    1.1985   -0.6830 N   0  0  0  0  0  0
    2.5163    0.4545   -0.8035 C   0  0  0  0  0  0
    1.8704   -4.0413   -0.7406 H   0  0  0  0  0  0
    1.2520   -2.8541   -1.8913 H   0  0  0  0  0  0
    2.6836   -2.4905   -0.9110 H   0  0  0  0  0  0
    1.3435   -2.5681    1.1603 H   0  0  0  0  0  0
   -0.2822   -4.2627    0.4931 H   0  0  0  0  0  0
   -1.0613   -3.1592   -0.6439 H   0  0  0  0  0  0
   -1.1329   -2.8313    1.0967 H   0  0  0  0  0  0
   -0.1265   -0.6238    0.9425 H   0  0  0  0  0  0
   -2.0525   -0.3919   -0.1692 H   0  0  0  0  0  0
   -1.7418    0.6105   -3.0459 H   0  0  0  0  0  0
   -3.2525    0.5802   -2.1205 H   0  0  0  0  0  0
   -2.4463   -0.9344   -2.5412 H   0  0  0  0  0  0
   -1.0635    2.2645   -1.3412 H   0  0  0  0  0  0
   -0.4172    1.7182    0.1954 H   0  0  0  0  0  0
   -3.3896    2.1288   -0.3628 H   0  0  0  0  0  0
   -1.3704    3.7433    1.3554 H   0  0  0  0  0  0
   -3.1567    4.0561    1.2056 H   0  0  0  0  0  0
   -3.6278    1.7471    2.1206 H   0  0  0  0  0  0
   -1.8405    1.4461    2.2659 H   0  0  0  0  0  0
    1.7304   -0.0970    2.4342 H   0  0  0  0  0  0
    3.7852    1.2750    2.6930 H   0  0  0  0  0  0
    4.9579    2.0730    0.6391 H   0  0  0  0  0  0
    2.2120    0.2665   -1.8302 H   0  0  0  0  0  0
   -0.1847   -0.5320   -1.1804 N   0  3  0  0  0  0
    0.4164    0.0828   -1.7416 H   0  0  0  0  0  0
   -0.3696   -1.3976   -1.7007 H   0  0  0  0  0  0
  1  2  1  0  0  0
  1 17  1  0  0  0
  1 18  1  0  0  0
  1 19  1  0  0  0
  2  3  1  0  0  0
  2  4  1  0  0  0
  2 20  1  0  0  0
  3 21  1  0  0  0
  3 22  1  0  0  0
  3 23  1  0  0  0
  4 11  1  0  0  0
  4 24  1  0  0  0
  4 40  1  0  0  0
  5  6  1  0  0  0
  5  7  1  0  0  0
  5 25  1  0  0  0
  5 40  1  0  0  0
  6 26  1  0  0  0
  6 27  1  0  0  0
  6 28  1  0  0  0
  7  8  1  0  0  0
  7 29  1  0  0  0
  7 30  1  0  0  0
  8  9  1  0  0  0
  8 10  1  0  0  0
  8 31  1  0  0  0
  9 10  1  0  0  0
  9 32  1  0  0  0
  9 33  1  0  0  0
 10 34  1  0  0  0
 10 35  1  0  0  0
 11 12  2  0  0  0
 11 16  1  0  0  0
 12 13  1  0  0  0
 12 36  1  0  0  0
 13 14  2  0  0  0
 13 37  1  0  0  0
 14 15  1  0  0  0
 14 38  1  0  0  0
 15 16  2  0  0  0
 16 39  1  0  0  0
 40 41  1  0  0  0
 40 42  1  0  0  0
M  CHG  1  40   1
M  END
> <energy>
51.3522

> <chiral flag>
0

> <version>
0

> <i_ionizer_Ion_state_n>
1

> <i_ionizer_Tot_Q>
1

> <s_ionizer_Ion_centers>
40

> <s_ionizer_Ion_types>
N5

> <s_ionizer_Ion_ctrs_in>
5

> <r_ionizer_Ionization_penalty>
0.0075612

> <r_ionizer_Ionization_penalty_charging>
0.000148807

> <r_ionizer_Ionization_penalty_neutral>
0.00741239

$$$$
ZINC001258450002
                    3D
 Structure written by MMmdl.
 42 43  0  0  1  0            999 V2000
    2.6636   -1.8081   -1.1702 C   0  0  0  0  0  0
    1.6091   -1.7688   -0.0527 C   0  0  0  0  0  0
    0.6639   -2.9662   -0.2441 C   0  0  0  0  0  0
    0.8232   -0.4158   -0.0374 C   0  0  2  0  0  0
   -1.1469    0.6837    1.0482 C   0  0  2  0  0  0
   -2.1283    0.4455    2.2038 C   0  0  0  0  0  0
   -1.9124    0.9687   -0.2663 C   0  0  0  0  0  0
   -2.7214   -0.1948   -0.7771 C   0  0  0  0  0  0
   -4.2245   -0.0975   -0.8539 C   0  0  0  0  0  0
   -3.4107   -0.0890   -2.1153 C   0  0  0  0  0  0
    1.7496    0.7754    0.1320 C   0  0  0  0  0  0
    2.5305    0.9798    1.2747 C   0  0  0  0  0  0
    3.3577    2.0980    1.3577 C   0  0  0  0  0  0
    3.3835    2.9789    0.2895 C   0  0  0  0  0  0
    2.6510    2.8193   -0.8313 N   0  0  0  0  0  0
    1.8538    1.7277   -0.8836 C   0  0  0  0  0  0
    3.1858   -2.7718   -1.1758 H   0  0  0  0  0  0
    2.2037   -1.6701   -2.1556 H   0  0  0  0  0  0
    3.4252   -1.0345   -1.0378 H   0  0  0  0  0  0
    2.1327   -1.9060    0.9027 H   0  0  0  0  0  0
   -0.0120   -3.0819    0.6091 H   0  0  0  0  0  0
    1.2300   -3.9001   -0.3364 H   0  0  0  0  0  0
    0.0560   -2.8498   -1.1486 H   0  0  0  0  0  0
    0.3282   -0.3476   -1.0153 H   0  0  0  0  0  0
   -0.5822    1.5893    1.3042 H   0  0  0  0  0  0
   -2.7352   -0.4536    2.0473 H   0  0  0  0  0  0
   -1.5924    0.3265    3.1534 H   0  0  0  0  0  0
   -2.8094    1.2970    2.3147 H   0  0  0  0  0  0
   -1.2062    1.2755   -1.0470 H   0  0  0  0  0  0
   -2.5671    1.8370   -0.1093 H   0  0  0  0  0  0
   -2.2772   -1.1556   -0.5429 H   0  0  0  0  0  0
   -4.7062    0.8284   -0.5610 H   0  0  0  0  0  0
   -4.8015   -0.9870   -0.6270 H   0  0  0  0  0  0
   -3.3301    0.8410   -2.6653 H   0  0  0  0  0  0
   -3.4408   -0.9753   -2.7407 H   0  0  0  0  0  0
    2.5004    0.2775    2.1030 H   0  0  0  0  0  0
    3.9710    2.2777    2.2320 H   0  0  0  0  0  0
    4.0149    3.8632    0.3046 H   0  0  0  0  0  0
    1.2816    1.6365   -1.8035 H   0  0  0  0  0  0
   -0.2250   -0.4989    1.0346 N   0  3  0  0  0  0
   -0.7834   -1.3468    0.8808 H   0  0  0  0  0  0
    0.2437   -0.5585    1.9462 H   0  0  0  0  0  0
  1  2  1  0  0  0
  1 17  1  0  0  0
  1 18  1  0  0  0
  1 19  1  0  0  0
  2  3  1  0  0  0
  2  4  1  0  0  0
  2 20  1  0  0  0
  3 21  1  0  0  0
  3 22  1  0  0  0
  3 23  1  0  0  0
  4 11  1  0  0  0
  4 24  1  0  0  0
  4 40  1  0  0  0
  5  6  1  0  0  0
  5  7  1  0  0  0
  5 25  1  0  0  0
  5 40  1  0  0  0
  6 26  1  0  0  0
  6 27  1  0  0  0
  6 28  1  0  0  0
  7  8  1  0  0  0
  7 29  1  0  0  0
  7 30  1  0  0  0
  8  9  1  0  0  0
  8 10  1  0  0  0
  8 31  1  0  0  0
  9 10  1  0  0  0
  9 32  1  0  0  0
  9 33  1  0  0  0
 10 34  1  0  0  0
 10 35  1  0  0  0
 11 12  2  0  0  0
 11 16  1  0  0  0
 12 13  1  0  0  0
 12 36  1  0  0  0
 13 14  2  0  0  0
 13 37  1  0  0  0
 14 15  1  0  0  0
 14 38  1  0  0  0
 15 16  2  0  0  0
 16 39  1  0  0  0
 40 41  1  0  0  0
 40 42  1  0  0  0
M  CHG  1  40   1
M  END
> <energy>
49.0663

> <chiral flag>
0

> <version>
0

> <i_ionizer_Ion_state_n>
1

> <i_ionizer_Tot_Q>
1

> <s_ionizer_Ion_centers>
40

> <s_ionizer_Ion_types>
N5

> <s_ionizer_Ion_ctrs_in>
5

> <r_ionizer_Ionization_penalty>
0.0075612

> <r_ionizer_Ionization_penalty_charging>
0.000148807

> <r_ionizer_Ionization_penalty_neutral>
0.00741239

$$$$
ZINC001258450003
                    3D
 Structure written by MMmdl.
 42 43  0  0  1  0            999 V2000
    0.7461   -2.4117    0.9058 C   0  0  0  0  0  0
    1.1639   -0.9317    0.9057 C   0  0  0  0  0  0
    2.6250   -0.9200    1.4001 C   0  0  0  0  0  0
    0.9457   -0.2348   -0.4873 C   0  0  2  0  0  0
   -1.6019   -0.4179   -0.8772 C   0  0  1  0  0  0
   -1.4574   -1.6510   -1.7653 C   0  0  0  0  0  0
   -2.3565   -0.6853    0.4437 C   0  0  0  0  0  0
   -2.8713    0.5864    1.0679 C   0  0  0  0  0  0
   -4.2116    1.1402    0.6679 C   0  0  0  0  0  0
   -4.0263    0.5432    2.0356 C   0  0  0  0  0  0
    1.9536    0.8945   -0.7187 C   0  0  0  0  0  0
    2.9663    0.7931   -1.6790 C   0  0  0  0  0  0
    3.8541    1.8521   -1.8563 C   0  0  0  0  0  0
    3.7001    2.9839   -1.0719 C   0  0  0  0  0  0
    2.7331    3.1276   -0.1424 N   0  0  0  0  0  0
    1.8839    2.0856    0.0088 C   0  0  0  0  0  0
    0.9245   -2.8628    1.8892 H   0  0  0  0  0  0
    1.3187   -2.9846    0.1678 H   0  0  0  0  0  0
   -0.3099   -2.5592    0.6978 H   0  0  0  0  0  0
    0.5680   -0.4047    1.6621 H   0  0  0  0  0  0
    2.9724    0.0911    1.6258 H   0  0  0  0  0  0
    2.7225   -1.4865    2.3330 H   0  0  0  0  0  0
    3.3031   -1.3697    0.6676 H   0  0  0  0  0  0
    1.1201   -0.9779   -1.2774 H   0  0  0  0  0  0
   -2.2690    0.2475   -1.4436 H   0  0  0  0  0  0
   -2.4440   -2.0702   -1.9938 H   0  0  0  0  0  0
   -0.9847   -1.3890   -2.7187 H   0  0  0  0  0  0
   -0.8676   -2.4453   -1.3082 H   0  0  0  0  0  0
   -3.1970   -1.3633    0.2466 H   0  0  0  0  0  0
   -1.7292   -1.1821    1.1850 H   0  0  0  0  0  0
   -2.0694    1.2846    1.2902 H   0  0  0  0  0  0
   -4.8113    0.5890   -0.0477 H   0  0  0  0  0  0
   -4.3095    2.2159    0.5912 H   0  0  0  0  0  0
   -4.4920   -0.4142    2.2435 H   0  0  0  0  0  0
   -4.0031    1.2206    2.8827 H   0  0  0  0  0  0
    3.0664   -0.1023   -2.2872 H   0  0  0  0  0  0
    4.6466    1.7979   -2.5955 H   0  0  0  0  0  0
    4.3709    3.8331   -1.1737 H   0  0  0  0  0  0
    1.1106    2.2343    0.7591 H   0  0  0  0  0  0
   -0.3897    0.4718   -0.7048 N   0  3  0  0  0  0
   -0.5593    1.0764    0.1076 H   0  0  0  0  0  0
   -0.3038    1.0494   -1.5493 H   0  0  0  0  0  0
  1  2  1  0  0  0
  1 17  1  0  0  0
  1 18  1  0  0  0
  1 19  1  0  0  0
  2  3  1  0  0  0
  2  4  1  0  0  0
  2 20  1  0  0  0
  3 21  1  0  0  0
  3 22  1  0  0  0
  3 23  1  0  0  0
  4 11  1  0  0  0
  4 24  1  0  0  0
  4 40  1  0  0  0
  5  6  1  0  0  0
  5  7  1  0  0  0
  5 25  1  0  0  0
  5 40  1  0  0  0
  6 26  1  0  0  0
  6 27  1  0  0  0
  6 28  1  0  0  0
  7  8  1  0  0  0
  7 29  1  0  0  0
  7 30  1  0  0  0
  8  9  1  0  0  0
  8 10  1  0  0  0
  8 31  1  0  0  0
  9 10  1  0  0  0
  9 32  1  0  0  0
  9 33  1  0  0  0
 10 34  1  0  0  0
 10 35  1  0  0  0
 11 12  2  0  0  0
 11 16  1  0  0  0
 12 13  1  0  0  0
 12 36  1  0  0  0
 13 14  2  0  0  0
 13 37  1  0  0  0
 14 15  1  0  0  0
 14 38  1  0  0  0
 15 16  2  0  0  0
 16 39  1  0  0  0
 40 41  1  0  0  0
 40 42  1  0  0  0
M  CHG  1  40   1
M  END
> <energy>
64.6036

> <chiral flag>
0

> <version>
0

> <i_ionizer_Ion_state_n>
1

> <i_ionizer_Tot_Q>
1

> <s_ionizer_Ion_centers>
40

> <s_ionizer_Ion_types>
N5

> <s_ionizer_Ion_ctrs_in>
5

> <r_ionizer_Ionization_penalty>
0.0075612

> <r_ionizer_Ionization_penalty_charging>
0.000148807

> <r_ionizer_Ionization_penalty_neutral>
0.00741239

$$$$
ZINC001258450004
                    3D
 Structure written by MMmdl.
 42 43  0  0  1  0            999 V2000
    2.3522   -1.5655    1.7471 C   0  0  0  0  0  0
    2.5358   -0.4986    0.6609 C   0  0  0  0  0  0
    3.3688   -1.0620   -0.4957 C   0  0  0  0  0  0
    1.1605    0.1095    0.2576 C   0  0  1  0  0  0
   -1.1386   -0.4897   -0.3787 C   0  0  1  0  0  0
   -1.8160   -1.0200   -1.6464 C   0  0  0  0  0  0
   -1.7992   -1.0814    0.8859 C   0  0  0  0  0  0
   -3.0008   -0.2980    1.3407 C   0  0  0  0  0  0
   -3.9914   -0.9756    2.2554 C   0  0  0  0  0  0
   -4.3927   -0.6052    0.8510 C   0  0  0  0  0  0
    1.3302    1.4055   -0.5124 C   0  0  0  0  0  0
    1.5376    1.4738   -1.8961 C   0  0  0  0  0  0
    1.6818    2.7140   -2.5131 C   0  0  0  0  0  0
    1.6329    3.8523   -1.7279 C   0  0  0  0  0  0
    1.4510    3.8325   -0.3904 N   0  0  0  0  0  0
    1.3068    2.6160    0.1794 C   0  0  0  0  0  0
    1.7399   -2.4047    1.4022 H   0  0  0  0  0  0
    1.8625   -1.1353    2.6282 H   0  0  0  0  0  0
    3.3187   -1.9632    2.0743 H   0  0  0  0  0  0
    3.1390    0.3028    1.1110 H   0  0  0  0  0  0
    4.2966   -1.5037   -0.1175 H   0  0  0  0  0  0
    3.6668   -0.2748   -1.1955 H   0  0  0  0  0  0
    2.8404   -1.8371   -1.0572 H   0  0  0  0  0  0
    0.6689    0.3716    1.2063 H   0  0  0  0  0  0
   -1.2495    0.6008   -0.3873 H   0  0  0  0  0  0
   -2.8760   -0.7510   -1.6694 H   0  0  0  0  0  0
   -1.3563   -0.5906   -2.5452 H   0  0  0  0  0  0
   -1.7412   -2.1126   -1.7204 H   0  0  0  0  0  0
   -1.0907   -1.0706    1.7268 H   0  0  0  0  0  0
   -2.0557   -2.1370    0.7197 H   0  0  0  0  0  0
   -2.7520    0.7370    1.5567 H   0  0  0  0  0  0
   -4.3907   -0.3949    3.0794 H   0  0  0  0  0  0
   -3.8503   -2.0273    2.4838 H   0  0  0  0  0  0
   -4.5289   -1.4024    0.1279 H   0  0  0  0  0  0
   -5.0766    0.2283    0.7268 H   0  0  0  0  0  0
    1.5892    0.5771   -2.5036 H   0  0  0  0  0  0
    1.8270    2.7891   -3.5866 H   0  0  0  0  0  0
    1.7459    4.8430   -2.1595 H   0  0  0  0  0  0
    1.1599    2.6404    1.2572 H   0  0  0  0  0  0
    0.2950   -0.8929   -0.4219 N   0  3  0  0  0  0
    0.5888   -0.9785   -1.4020 H   0  0  0  0  0  0
    0.4016   -1.7997    0.0479 H   0  0  0  0  0  0
  1  2  1  0  0  0
  1 17  1  0  0  0
  1 18  1  0  0  0
  1 19  1  0  0  0
  2  3  1  0  0  0
  2  4  1  0  0  0
  2 20  1  0  0  0
  3 21  1  0  0  0
  3 22  1  0  0  0
  3 23  1  0  0  0
  4 11  1  0  0  0
  4 24  1  0  0  0
  4 40  1  0  0  0
  5  6  1  0  0  0
  5  7  1  0  0  0
  5 25  1  0  0  0
  5 40  1  0  0  0
  6 26  1  0  0  0
  6 27  1  0  0  0
  6 28  1  0  0  0
  7  8  1  0  0  0
  7 29  1  0  0  0
  7 30  1  0  0  0
  8  9  1  0  0  0
  8 10  1  0  0  0
  8 31  1  0  0  0
  9 10  1  0  0  0
  9 32  1  0  0  0
  9 33  1  0  0  0
 10 34  1  0  0  0
 10 35  1  0  0  0
 11 12  2  0  0  0
 11 16  1  0  0  0
 12 13  1  0  0  0
 12 36  1  0  0  0
 13 14  2  0  0  0
 13 37  1  0  0  0
 14 15  1  0  0  0
 14 38  1  0  0  0
 15 16  2  0  0  0
 16 39  1  0  0  0
 40 41  1  0  0  0
 40 42  1  0  0  0
M  CHG  1  40   1
M  END
> <energy>
50.4592

> <chiral flag>
0

> <version>
0

> <i_ionizer_Ion_state_n>
1

> <i_ionizer_Tot_Q>
1

> <s_ionizer_Ion_centers>
40

> <s_ionizer_Ion_types>
N5

> <s_ionizer_Ion_ctrs_in>
5

> <r_ionizer_Ionization_penalty>
0.0075612

> <r_ionizer_Ionization_penalty_charging>
0.000148807

> <r_ionizer_Ionization_penalty_neutral>
0.00741239

$$$$
ZINC001258450194
                    3D
 Structure written by MMmdl.
 44 45  0  0  1  0            999 V2000
    0.4550   -3.2297   -3.7638 C   0  0  0  0  0  0
    0.3063   -1.9240   -4.3196 O   0  0  0  0  0  0
    0.0399   -1.0165   -3.3284 C   0  0  0  0  0  0
    1.0704   -0.2228   -2.8462 C   0  0  0  0  0  0
    0.8067    0.7235   -1.8491 C   0  0  0  0  0  0
   -0.4909    0.9016   -1.3251 C   0  0  0  0  0  0
   -0.7749    1.8547   -0.1379 C   0  0  0  0  0  0
    0.4738    2.6059    0.3737 C   0  0  0  0  0  0
   -1.7783    2.9497   -0.5923 C   0  0  0  0  0  0
   -0.7237   -0.0529    1.5016 C   0  0  2  0  0  0
   -1.7924   -1.0869    1.8978 C   0  0  0  0  0  0
    0.1918    0.2573    2.7033 C   0  0  0  0  0  0
    1.1732   -0.8589    2.9490 C   0  0  0  0  0  0
    2.5381   -0.5456    3.5088 C   0  0  0  0  0  0
    2.4003   -1.0117    2.0853 C   0  0  0  0  0  0
   -1.5223    0.1084   -1.8744 C   0  0  0  0  0  0
   -1.2578   -0.8412   -2.8665 C   0  0  0  0  0  0
   -0.4962   -3.6048   -3.3747 H   0  0  0  0  0  0
    0.7736   -3.9011   -4.5627 H   0  0  0  0  0  0
    1.2233   -3.2472   -2.9840 H   0  0  0  0  0  0
    2.0821   -0.3407   -3.2286 H   0  0  0  0  0  0
    1.6494    1.3041   -1.4818 H   0  0  0  0  0  0
    0.2478    3.1830    1.2798 H   0  0  0  0  0  0
    0.8459    3.3191   -0.3712 H   0  0  0  0  0  0
    1.3021    1.9291    0.6051 H   0  0  0  0  0  0
   -2.7272    2.5292   -0.9476 H   0  0  0  0  0  0
   -1.3665    3.5530   -1.4125 H   0  0  0  0  0  0
   -2.0213    3.6354    0.2301 H   0  0  0  0  0  0
   -0.1260   -0.5194    0.7119 H   0  0  0  0  0  0
   -1.3308   -2.0153    2.2457 H   0  0  0  0  0  0
   -2.4482   -0.7095    2.6899 H   0  0  0  0  0  0
   -2.4201   -1.3472    1.0388 H   0  0  0  0  0  0
    0.7520    1.1796    2.5419 H   0  0  0  0  0  0
   -0.4001    0.4271    3.6105 H   0  0  0  0  0  0
    0.6929   -1.7668    3.2973 H   0  0  0  0  0  0
    2.9452   -1.2365    4.2377 H   0  0  0  0  0  0
    2.8077    0.4915    3.6817 H   0  0  0  0  0  0
    2.5740   -0.2888    1.2980 H   0  0  0  0  0  0
    2.7224   -2.0166    1.8354 H   0  0  0  0  0  0
   -2.5444    0.2114   -1.5181 H   0  0  0  0  0  0
   -2.0637   -1.4411   -3.2755 H   0  0  0  0  0  0
   -1.4603    1.1664    1.0284 N   0  3  0  0  0  0
   -1.5277    1.8314    1.8078 H   0  0  0  0  0  0
   -2.4036    0.8860    0.7352 H   0  0  0  0  0  0
  1  2  1  0  0  0
  1 18  1  0  0  0
  1 19  1  0  0  0
  1 20  1  0  0  0
  2  3  1  0  0  0
  3  4  2  0  0  0
  3 17  1  0  0  0
  4  5  1  0  0  0
  4 21  1  0  0  0
  5  6  2  0  0  0
  5 22  1  0  0  0
  6  7  1  0  0  0
  6 16  1  0  0  0
  7  8  1  0  0  0
  7  9  1  0  0  0
  7 42  1  0  0  0
  8 23  1  0  0  0
  8 24  1  0  0  0
  8 25  1  0  0  0
  9 26  1  0  0  0
  9 27  1  0  0  0
  9 28  1  0  0  0
 10 11  1  0  0  0
 10 12  1  0  0  0
 10 29  1  0  0  0
 10 42  1  0  0  0
 11 30  1  0  0  0
 11 31  1  0  0  0
 11 32  1  0  0  0
 12 13  1  0  0  0
 12 33  1  0  0  0
 12 34  1  0  0  0
 13 14  1  0  0  0
 13 15  1  0  0  0
 13 35  1  0  0  0
 14 15  1  0  0  0
 14 36  1  0  0  0
 14 37  1  0  0  0
 15 38  1  0  0  0
 15 39  1  0  0  0
 16 17  2  0  0  0
 16 40  1  0  0  0
 17 41  1  0  0  0
 42 43  1  0  0  0
 42 44  1  0  0  0
M  CHG  1  42   1
M  END
> <energy>
62.4508

> <chiral flag>
0

> <version>
0

> <i_ionizer_Ion_state_n>
1

> <i_ionizer_Tot_Q>
1

> <s_ionizer_Ion_centers>
42

> <s_ionizer_Ion_types>
N5

> <s_ionizer_Ion_ctrs_in>
10

> <r_ionizer_Ionization_penalty>
0.000148807

> <r_ionizer_Ionization_penalty_charging>
0.000148807

> <r_ionizer_Ionization_penalty_neutral>
0

$$$$
ZINC001258450195
                    3D
 Structure written by MMmdl.
 44 45  0  0  1  0            999 V2000
    3.4976   -2.9403    2.3098 C   0  0  0  0  0  0
    2.6703   -2.1504    3.1644 O   0  0  0  0  0  0
    2.0190   -1.1398    2.5149 C   0  0  0  0  0  0
    0.6891   -0.9233    2.8588 C   0  0  0  0  0  0
   -0.0537    0.0647    2.2083 C   0  0  0  0  0  0
    0.5170    0.8735    1.2020 C   0  0  0  0  0  0
   -0.3268    1.9435    0.4903 C   0  0  0  0  0  0
   -0.6530    3.0286    1.5487 C   0  0  0  0  0  0
    0.4143    2.6831   -0.6452 C   0  0  0  0  0  0
   -1.7665    0.1754   -0.6554 C   0  0  1  0  0  0
   -3.2272   -0.2529   -0.4506 C   0  0  0  0  0  0
   -1.4519    0.2117   -2.1673 C   0  0  0  0  0  0
   -1.3717   -1.1743   -2.7531 C   0  0  0  0  0  0
   -0.2042   -2.0680   -2.4151 C   0  0  0  0  0  0
   -0.3404   -1.5033   -3.8043 C   0  0  0  0  0  0
    1.8787    0.6802    0.9208 C   0  0  0  0  0  0
    2.6251   -0.3028    1.5774 C   0  0  0  0  0  0
    2.9420   -3.2958    1.4334 H   0  0  0  0  0  0
    4.3969   -2.3958    2.0040 H   0  0  0  0  0  0
    3.8255   -3.8186    2.8743 H   0  0  0  0  0  0
    0.2115   -1.5377    3.6182 H   0  0  0  0  0  0
   -1.1016    0.1953    2.4766 H   0  0  0  0  0  0
   -1.2031    3.8663    1.1062 H   0  0  0  0  0  0
    0.2657    3.4355    1.9894 H   0  0  0  0  0  0
   -1.2611    2.6418    2.3753 H   0  0  0  0  0  0
    0.8115    2.0102   -1.4096 H   0  0  0  0  0  0
   -0.2374    3.4102   -1.1446 H   0  0  0  0  0  0
    1.2656    3.2540   -0.2496 H   0  0  0  0  0  0
   -1.1509   -0.5925   -0.1772 H   0  0  0  0  0  0
   -3.4917   -0.2693    0.6112 H   0  0  0  0  0  0
   -3.4043   -1.2603   -0.8371 H   0  0  0  0  0  0
   -3.9200    0.4283   -0.9575 H   0  0  0  0  0  0
   -0.5056    0.7238   -2.3477 H   0  0  0  0  0  0
   -2.2211    0.7767   -2.7091 H   0  0  0  0  0  0
   -2.3507   -1.6296   -2.8684 H   0  0  0  0  0  0
   -0.4135   -3.1218   -2.2624 H   0  0  0  0  0  0
    0.5813   -1.6801   -1.7726 H   0  0  0  0  0  0
    0.3560   -0.7307   -4.1076 H   0  0  0  0  0  0
   -0.6344   -2.1802   -4.5999 H   0  0  0  0  0  0
    2.4026    1.2927    0.1947 H   0  0  0  0  0  0
    3.6805   -0.3888    1.3477 H   0  0  0  0  0  0
   -1.7087    1.5118    0.0354 N   0  3  0  0  0  0
   -2.3166    1.4688    0.8618 H   0  0  0  0  0  0
   -2.0655    2.2214   -0.6153 H   0  0  0  0  0  0
  1  2  1  0  0  0
  1 18  1  0  0  0
  1 19  1  0  0  0
  1 20  1  0  0  0
  2  3  1  0  0  0
  3  4  2  0  0  0
  3 17  1  0  0  0
  4  5  1  0  0  0
  4 21  1  0  0  0
  5  6  2  0  0  0
  5 22  1  0  0  0
  6  7  1  0  0  0
  6 16  1  0  0  0
  7  8  1  0  0  0
  7  9  1  0  0  0
  7 42  1  0  0  0
  8 23  1  0  0  0
  8 24  1  0  0  0
  8 25  1  0  0  0
  9 26  1  0  0  0
  9 27  1  0  0  0
  9 28  1  0  0  0
 10 11  1  0  0  0
 10 12  1  0  0  0
 10 29  1  0  0  0
 10 42  1  0  0  0
 11 30  1  0  0  0
 11 31  1  0  0  0
 11 32  1  0  0  0
 12 13  1  0  0  0
 12 33  1  0  0  0
 12 34  1  0  0  0
 13 14  1  0  0  0
 13 15  1  0  0  0
 13 35  1  0  0  0
 14 15  1  0  0  0
 14 36  1  0  0  0
 14 37  1  0  0  0
 15 38  1  0  0  0
 15 39  1  0  0  0
 16 17  2  0  0  0
 16 40  1  0  0  0
 17 41  1  0  0  0
 42 43  1  0  0  0
 42 44  1  0  0  0
M  CHG  1  42   1
M  END
> <energy>
63.2866

> <chiral flag>
0

> <version>
0

> <i_ionizer_Ion_state_n>
1

> <i_ionizer_Tot_Q>
1

> <s_ionizer_Ion_centers>
42

> <s_ionizer_Ion_types>
N5

> <s_ionizer_Ion_ctrs_in>
10

> <r_ionizer_Ionization_penalty>
0.000148807

> <r_ionizer_Ionization_penalty_charging>
0.000148807

> <r_ionizer_Ionization_penalty_neutral>
0

$$$$
ZINC001258450196
                    3D
 Structure written by MMmdl.
 37 38  0  0  1  0            999 V2000
   -3.2689    4.2040    0.1652 C   0  0  0  0  0  0
   -2.7614    2.8070   -0.0224 C   0  0  0  0  0  0
   -2.8446    1.8503    0.9977 C   0  0  0  0  0  0
   -2.3645    0.5503    0.7931 C   0  0  0  0  0  0
   -1.8035    0.1815   -0.4380 C   0  0  0  0  0  0
   -1.2533   -1.1993   -0.6720 C   0  0  0  0  0  0
    0.6725   -1.6668    0.7957 C   0  0  1  0  0  0
    0.7011   -3.1965    0.8756 C   0  0  0  0  0  0
    2.0636   -1.0534    1.0875 C   0  0  0  0  0  0
    3.1209   -1.3756    0.0614 C   0  0  0  0  0  0
    4.3418   -0.4971   -0.0584 C   0  0  0  0  0  0
    3.3040   -0.4902   -1.1451 C   0  0  0  0  0  0
   -1.7289    1.1421   -1.4524 C   0  0  0  0  0  0
   -1.2066    0.8174   -2.6455 F   0  0  0  0  0  0
   -2.2006    2.4349   -1.2466 C   0  0  0  0  0  0
   -2.1170    3.3355   -2.2383 F   0  0  0  0  0  0
   -4.1010    4.3986   -0.5199 H   0  0  0  0  0  0
   -3.6252    4.3696    1.1868 H   0  0  0  0  0  0
   -2.4689    4.9260   -0.0295 H   0  0  0  0  0  0
   -3.2784    2.1118    1.9621 H   0  0  0  0  0  0
   -2.4269   -0.1744    1.6029 H   0  0  0  0  0  0
   -1.7605   -1.9366   -0.0376 H   0  0  0  0  0  0
   -1.5017   -1.4930   -1.6998 H   0  0  0  0  0  0
    0.0052   -1.2976    1.5850 H   0  0  0  0  0  0
    1.2796   -3.6398    0.0581 H   0  0  0  0  0  0
   -0.3104   -3.6136    0.8260 H   0  0  0  0  0  0
    1.1476   -3.5255    1.8200 H   0  0  0  0  0  0
    2.4124   -1.4096    2.0659 H   0  0  0  0  0  0
    1.9553    0.0362    1.1812 H   0  0  0  0  0  0
    3.2778   -2.4410   -0.0577 H   0  0  0  0  0  0
    4.4146    0.3816    0.5716 H   0  0  0  0  0  0
    5.2936   -0.9670   -0.2771 H   0  0  0  0  0  0
    3.5432   -0.9673   -2.0872 H   0  0  0  0  0  0
    2.6697    0.3854   -1.2402 H   0  0  0  0  0  0
    0.2197   -1.2057   -0.5435 N   0  3  0  0  0  0
    0.6096   -1.8328   -1.2569 H   0  0  0  0  0  0
    0.5678   -0.2523   -0.6987 H   0  0  0  0  0  0
  1  2  1  0  0  0
  1 17  1  0  0  0
  1 18  1  0  0  0
  1 19  1  0  0  0
  2  3  2  0  0  0
  2 15  1  0  0  0
  3  4  1  0  0  0
  3 20  1  0  0  0
  4  5  2  0  0  0
  4 21  1  0  0  0
  5  6  1  0  0  0
  5 13  1  0  0  0
  6 22  1  0  0  0
  6 23  1  0  0  0
  6 35  1  0  0  0
  7  8  1  0  0  0
  7  9  1  0  0  0
  7 24  1  0  0  0
  7 35  1  0  0  0
  8 25  1  0  0  0
  8 26  1  0  0  0
  8 27  1  0  0  0
  9 10  1  0  0  0
  9 28  1  0  0  0
  9 29  1  0  0  0
 10 11  1  0  0  0
 10 12  1  0  0  0
 10 30  1  0  0  0
 11 12  1  0  0  0
 11 31  1  0  0  0
 11 32  1  0  0  0
 12 33  1  0  0  0
 12 34  1  0  0  0
 13 14  1  0  0  0
 13 15  2  0  0  0
 15 16  1  0  0  0
 35 36  1  0  0  0
 35 37  1  0  0  0
M  CHG  1  35   1
M  END
> <energy>
54.1203

> <chiral flag>
0

> <version>
0

> <i_ionizer_Ion_state_n>
1

> <i_ionizer_Tot_Q>
1

> <s_ionizer_Ion_centers>
35

> <s_ionizer_Ion_types>
N5

> <s_ionizer_Ion_ctrs_in>
7

> <r_ionizer_Ionization_penalty>
0.000148807

> <r_ionizer_Ionization_penalty_charging>
0.000148807

> <r_ionizer_Ionization_penalty_neutral>
0

$$$$
ZINC001258450197
                    3D
 Structure written by MMmdl.
 37 38  0  0  1  0            999 V2000
   -4.7100    2.1910   -0.3677 C   0  0  0  0  0  0
   -3.5480    1.2544   -0.2289 C   0  0  0  0  0  0
   -3.2101    0.7047    1.0147 C   0  0  0  0  0  0
   -2.1368   -0.1866    1.1319 C   0  0  0  0  0  0
   -1.3659   -0.5327    0.0111 C   0  0  0  0  0  0
   -0.2409   -1.5337    0.0826 C   0  0  0  0  0  0
    1.5618   -0.6254    1.5732 C   0  0  2  0  0  0
    1.1008    0.8363    1.5807 C   0  0  0  0  0  0
    2.8505   -0.8891    0.7463 C   0  0  0  0  0  0
    2.9885   -0.1007   -0.5330 C   0  0  0  0  0  0
    4.0999   -0.4384   -1.4991 C   0  0  0  0  0  0
    2.6728   -0.6993   -1.8794 C   0  0  0  0  0  0
   -1.7252    0.0090   -1.2293 C   0  0  0  0  0  0
   -1.0262   -0.3189   -2.3298 F   0  0  0  0  0  0
   -2.8048    0.8793   -1.3502 C   0  0  0  0  0  0
   -3.1377    1.3565   -2.5598 F   0  0  0  0  0  0
   -4.8863    2.7323    0.5651 H   0  0  0  0  0  0
   -4.5200    2.9397   -1.1430 H   0  0  0  0  0  0
   -5.6117    1.6315   -0.6267 H   0  0  0  0  0  0
   -3.7806    0.9632    1.9045 H   0  0  0  0  0  0
   -1.8945   -0.6038    2.1075 H   0  0  0  0  0  0
    0.4543   -1.3996   -0.7454 H   0  0  0  0  0  0
   -0.7122   -2.5125   -0.0796 H   0  0  0  0  0  0
    1.8573   -0.8237    2.6122 H   0  0  0  0  0  0
    0.7776    1.1762    0.5930 H   0  0  0  0  0  0
    0.2705    0.9824    2.2823 H   0  0  0  0  0  0
    1.9177    1.4917    1.9052 H   0  0  0  0  0  0
    2.9591   -1.9637    0.5453 H   0  0  0  0  0  0
    3.7069   -0.6219    1.3799 H   0  0  0  0  0  0
    2.8230    0.9614   -0.3918 H   0  0  0  0  0  0
    4.6099    0.3731   -2.0075 H   0  0  0  0  0  0
    4.7281   -1.2984   -1.2978 H   0  0  0  0  0  0
    2.3661   -1.7370   -1.9450 H   0  0  0  0  0  0
    2.2022   -0.0486   -2.6104 H   0  0  0  0  0  0
    0.4654   -1.6431    1.3953 N   0  3  0  0  0  0
   -0.2228   -1.5146    2.1463 H   0  0  0  0  0  0
    0.8775   -2.5809    1.4654 H   0  0  0  0  0  0
  1  2  1  0  0  0
  1 17  1  0  0  0
  1 18  1  0  0  0
  1 19  1  0  0  0
  2  3  2  0  0  0
  2 15  1  0  0  0
  3  4  1  0  0  0
  3 20  1  0  0  0
  4  5  2  0  0  0
  4 21  1  0  0  0
  5  6  1  0  0  0
  5 13  1  0  0  0
  6 22  1  0  0  0
  6 23  1  0  0  0
  6 35  1  0  0  0
  7  8  1  0  0  0
  7  9  1  0  0  0
  7 24  1  0  0  0
  7 35  1  0  0  0
  8 25  1  0  0  0
  8 26  1  0  0  0
  8 27  1  0  0  0
  9 10  1  0  0  0
  9 28  1  0  0  0
  9 29  1  0  0  0
 10 11  1  0  0  0
 10 12  1  0  0  0
 10 30  1  0  0  0
 11 12  1  0  0  0
 11 31  1  0  0  0
 11 32  1  0  0  0
 12 33  1  0  0  0
 12 34  1  0  0  0
 13 14  1  0  0  0
 13 15  2  0  0  0
 15 16  1  0  0  0
 35 36  1  0  0  0
 35 37  1  0  0  0
M  CHG  1  35   1
M  END
> <energy>
57.1393

> <chiral flag>
0

> <version>
0

> <i_ionizer_Ion_state_n>
1

> <i_ionizer_Tot_Q>
1

> <s_ionizer_Ion_centers>
35

> <s_ionizer_Ion_types>
N5

> <s_ionizer_Ion_ctrs_in>
7

> <r_ionizer_Ionization_penalty>
0.000148807

> <r_ionizer_Ionization_penalty_charging>
0.000148807

> <r_ionizer_Ionization_penalty_neutral>
0

$$$$
ZINC001258450223
                    3D
 Structure written by MMmdl.
 38 39  0  0  1  0            999 V2000
    5.2993   -2.1961    0.2768 C   0  0  0  0  0  0
    5.2330   -0.8664    0.1249 C   0  0  0  0  0  0
    3.9585   -0.1478    0.0688 C   0  0  0  0  0  0
    3.0227   -0.2360    1.1070 C   0  0  0  0  0  0
    1.8084    0.4520    1.0266 C   0  0  0  0  0  0
    1.5107    1.2372   -0.0944 C   0  0  0  0  0  0
    0.1852    1.9473   -0.2240 C   0  0  0  0  0  0
   -1.4582    0.1617   -0.5570 C   0  0  2  0  0  0
   -1.7767   -0.8450   -1.6665 C   0  0  0  0  0  0
   -2.7534    0.6713    0.1115 C   0  0  0  0  0  0
   -3.3309   -0.3189    1.0839 C   0  0  0  0  0  0
   -4.3888   -1.3039    0.6655 C   0  0  0  0  0  0
   -4.7530   -0.1446    1.5511 C   0  0  0  0  0  0
    2.4565    1.3316   -1.1252 C   0  0  0  0  0  0
    3.6740    0.6552   -1.0391 C   0  0  0  0  0  0
    4.4068   -2.8068    0.3652 H   0  0  0  0  0  0
    6.2566   -2.7044    0.2914 H   0  0  0  0  0  0
    6.1356   -0.2760   -0.0024 H   0  0  0  0  0  0
    3.2319   -0.8428    1.9848 H   0  0  0  0  0  0
    1.0908    0.3600    1.8385 H   0  0  0  0  0  0
   -0.2798    2.0926    0.7592 H   0  0  0  0  0  0
    0.3871    2.9595   -0.5988 H   0  0  0  0  0  0
   -0.8407   -0.3636    0.1786 H   0  0  0  0  0  0
   -2.3975   -0.3994   -2.4527 H   0  0  0  0  0  0
   -0.8560   -1.2153   -2.1324 H   0  0  0  0  0  0
   -2.3103   -1.7143   -1.2689 H   0  0  0  0  0  0
   -2.5486    1.5885    0.6766 H   0  0  0  0  0  0
   -3.4918    0.9438   -0.6528 H   0  0  0  0  0  0
   -2.6076   -0.6304    1.8303 H   0  0  0  0  0  0
   -4.3548   -2.2943    1.1064 H   0  0  0  0  0  0
   -4.7393   -1.2887   -0.3604 H   0  0  0  0  0  0
   -4.9719   -0.3459    2.5933 H   0  0  0  0  0  0
   -5.3499    0.6524    1.1219 H   0  0  0  0  0  0
    2.2360    1.9249   -2.0092 H   0  0  0  0  0  0
    4.3866    0.7409   -1.8559 H   0  0  0  0  0  0
   -0.7100    1.2785   -1.1925 N   0  3  0  0  0  0
   -1.3806    1.9653   -1.5570 H   0  0  0  0  0  0
   -0.1468    0.9061   -1.9660 H   0  0  0  0  0  0
  1  2  2  0  0  0
  1 16  1  0  0  0
  1 17  1  0  0  0
  2  3  1  0  0  0
  2 18  1  0  0  0
  3  4  2  0  0  0
  3 15  1  0  0  0
  4  5  1  0  0  0
  4 19  1  0  0  0
  5  6  2  0  0  0
  5 20  1  0  0  0
  6  7  1  0  0  0
  6 14  1  0  0  0
  7 21  1  0  0  0
  7 22  1  0  0  0
  7 36  1  0  0  0
  8  9  1  0  0  0
  8 10  1  0  0  0
  8 23  1  0  0  0
  8 36  1  0  0  0
  9 24  1  0  0  0
  9 25  1  0  0  0
  9 26  1  0  0  0
 10 11  1  0  0  0
 10 27  1  0  0  0
 10 28  1  0  0  0
 11 12  1  0  0  0
 11 13  1  0  0  0
 11 29  1  0  0  0
 12 13  1  0  0  0
 12 30  1  0  0  0
 12 31  1  0  0  0
 13 32  1  0  0  0
 13 33  1  0  0  0
 14 15  2  0  0  0
 14 34  1  0  0  0
 15 35  1  0  0  0
 36 37  1  0  0  0
 36 38  1  0  0  0
M  CHG  1  36   1
M  END
> <energy>
51.7541

> <chiral flag>
0

> <version>
0

> <i_ionizer_Ion_state_n>
1

> <i_ionizer_Tot_Q>
1

> <s_ionizer_Ion_centers>
36

> <s_ionizer_Ion_types>
N5

> <s_ionizer_Ion_ctrs_in>
8

> <r_ionizer_Ionization_penalty>
0.000148807

> <r_ionizer_Ionization_penalty_charging>
0.000148807

> <r_ionizer_Ionization_penalty_neutral>
0

$$$$
ZINC001258450224
                    3D
 Structure written by MMmdl.
 38 39  0  0  1  0            999 V2000
    3.8425    2.8529   -2.1312 C   0  0  0  0  0  0
    3.7043    1.5396   -2.3722 C   0  0  0  0  0  0
    2.9730    0.6253   -1.4922 C   0  0  0  0  0  0
    3.1057    0.6697   -0.1019 C   0  0  0  0  0  0
    2.4064   -0.2308    0.7066 C   0  0  0  0  0  0
    1.5532   -1.1943    0.1435 C   0  0  0  0  0  0
    0.8453   -2.1833    1.0409 C   0  0  0  0  0  0
   -1.4129   -1.0655    1.3138 C   0  0  1  0  0  0
   -0.7737   -0.0729    2.2901 C   0  0  0  0  0  0
   -1.9645   -0.3770    0.0454 C   0  0  0  0  0  0
   -2.9441    0.7285    0.3168 C   0  0  0  0  0  0
   -4.3130    0.4676    0.8878 C   0  0  0  0  0  0
   -4.1643    0.8549   -0.5585 C   0  0  0  0  0  0
    1.4293   -1.2448   -1.2502 C   0  0  0  0  0  0
    2.1366   -0.3451   -2.0581 C   0  0  0  0  0  0
    3.4126    3.3299   -1.2540 H   0  0  0  0  0  0
    4.3696    3.4908   -2.8346 H   0  0  0  0  0  0
    4.1178    1.1061   -3.2780 H   0  0  0  0  0  0
    3.7608    1.3994    0.3677 H   0  0  0  0  0  0
    2.5281   -0.1685    1.7857 H   0  0  0  0  0  0
    1.1342   -2.0407    2.0889 H   0  0  0  0  0  0
    1.2307   -3.1799    0.7804 H   0  0  0  0  0  0
   -2.2771   -1.4861    1.8469 H   0  0  0  0  0  0
   -0.3114   -0.5895    3.1365 H   0  0  0  0  0  0
   -1.5277    0.6047    2.7120 H   0  0  0  0  0  0
   -0.0257    0.5527    1.7999 H   0  0  0  0  0  0
   -2.4511   -1.1330   -0.5842 H   0  0  0  0  0  0
   -1.1427    0.0424   -0.5478 H   0  0  0  0  0  0
   -2.4464    1.6453    0.6105 H   0  0  0  0  0  0
   -4.5887   -0.5535    1.1173 H   0  0  0  0  0  0
   -4.7212    1.2051    1.5732 H   0  0  0  0  0  0
   -4.3470    0.0907   -1.3063 H   0  0  0  0  0  0
   -4.4516    1.8543   -0.8710 H   0  0  0  0  0  0
    0.7812   -1.9838   -1.7160 H   0  0  0  0  0  0
    2.0143   -0.4041   -3.1385 H   0  0  0  0  0  0
   -0.6389   -2.2939    0.8977 N   0  3  0  0  0  0
   -0.8502   -2.4850   -0.0887 H   0  0  0  0  0  0
   -0.9566   -3.0815    1.4747 H   0  0  0  0  0  0
  1  2  2  0  0  0
  1 16  1  0  0  0
  1 17  1  0  0  0
  2  3  1  0  0  0
  2 18  1  0  0  0
  3  4  2  0  0  0
  3 15  1  0  0  0
  4  5  1  0  0  0
  4 19  1  0  0  0
  5  6  2  0  0  0
  5 20  1  0  0  0
  6  7  1  0  0  0
  6 14  1  0  0  0
  7 21  1  0  0  0
  7 22  1  0  0  0
  7 36  1  0  0  0
  8  9  1  0  0  0
  8 10  1  0  0  0
  8 23  1  0  0  0
  8 36  1  0  0  0
  9 24  1  0  0  0
  9 25  1  0  0  0
  9 26  1  0  0  0
 10 11  1  0  0  0
 10 27  1  0  0  0
 10 28  1  0  0  0
 11 12  1  0  0  0
 11 13  1  0  0  0
 11 29  1  0  0  0
 12 13  1  0  0  0
 12 30  1  0  0  0
 12 31  1  0  0  0
 13 32  1  0  0  0
 13 33  1  0  0  0
 14 15  2  0  0  0
 14 34  1  0  0  0
 15 35  1  0  0  0
 36 37  1  0  0  0
 36 38  1  0  0  0
M  CHG  1  36   1
M  END
> <energy>
55.8422

> <chiral flag>
0

> <version>
0

> <i_ionizer_Ion_state_n>
1

> <i_ionizer_Tot_Q>
1

> <s_ionizer_Ion_centers>
36

> <s_ionizer_Ion_types>
N5

> <s_ionizer_Ion_ctrs_in>
8

> <r_ionizer_Ionization_penalty>
0.000148807

> <r_ionizer_Ionization_penalty_charging>
0.000148807

> <r_ionizer_Ionization_penalty_neutral>
0

$$$$
ZINC001258450347
                    3D
 Structure written by MMmdl.
 43 44  0  0  1  0            999 V2000
    3.1424    3.1615    0.2386 C   0  0  0  0  0  0
    1.9678    3.7907   -0.5072 C   0  0  0  0  0  0
    1.7461    3.2270   -1.9168 C   0  0  0  0  0  0
    0.9175    1.9642   -1.9308 C   0  0  0  0  0  0
   -0.4426    2.0085   -2.2732 C   0  0  0  0  0  0
   -1.2333    0.8564   -2.2268 C   0  0  0  0  0  0
   -0.6829   -0.3621   -1.8084 C   0  0  0  0  0  0
   -1.5302   -1.6096   -1.7098 C   0  0  0  0  0  0
   -2.2608   -1.9311    0.6553 C   0  0  2  0  0  0
   -2.6328   -0.4486    0.7591 C   0  0  0  0  0  0
   -1.6793   -2.4359    1.9979 C   0  0  0  0  0  0
   -0.3106   -1.8838    2.3004 C   0  0  0  0  0  0
    0.4880   -2.4399    3.4413 C   0  0  0  0  0  0
    0.9250   -2.7001    2.0258 C   0  0  0  0  0  0
    0.6832   -0.4082   -1.4931 C   0  0  0  0  0  0
    1.4761    0.7353   -1.5633 C   0  0  0  0  0  0
    3.1973    3.5687    1.2551 H   0  0  0  0  0  0
    4.0903    3.3774   -0.2704 H   0  0  0  0  0  0
    3.0421    2.0788    0.3348 H   0  0  0  0  0  0
    2.1691    4.8644   -0.5890 H   0  0  0  0  0  0
    1.0602    3.6881    0.0994 H   0  0  0  0  0  0
    1.2281    3.9930   -2.5103 H   0  0  0  0  0  0
    2.7036    3.0466   -2.4269 H   0  0  0  0  0  0
   -0.8985    2.9508   -2.5753 H   0  0  0  0  0  0
   -2.2866    0.9264   -2.4839 H   0  0  0  0  0  0
   -1.2101   -2.2772   -2.5180 H   0  0  0  0  0  0
   -2.5895   -1.4061   -1.9011 H   0  0  0  0  0  0
   -3.2042   -2.4728    0.4989 H   0  0  0  0  0  0
   -3.2532   -0.2713    1.6446 H   0  0  0  0  0  0
   -3.2284   -0.1296   -0.1010 H   0  0  0  0  0  0
   -1.7602    0.2069    0.8282 H   0  0  0  0  0  0
   -1.6492   -3.5353    1.9982 H   0  0  0  0  0  0
   -2.3498   -2.1470    2.8157 H   0  0  0  0  0  0
   -0.2406   -0.8160    2.1255 H   0  0  0  0  0  0
    0.0764   -3.2705    3.9977 H   0  0  0  0  0  0
    1.0504   -1.7302    4.0381 H   0  0  0  0  0  0
    0.7995   -3.6990    1.6205 H   0  0  0  0  0  0
    1.7794   -2.1699    1.6262 H   0  0  0  0  0  0
    1.1283   -1.3460   -1.1643 H   0  0  0  0  0  0
    2.5266    0.6599   -1.3090 H   0  0  0  0  0  0
   -1.3111   -2.3389   -0.4312 N   0  3  0  0  0  0
   -1.4275   -3.3440   -0.6055 H   0  0  0  0  0  0
   -0.3526   -2.1557   -0.1119 H   0  0  0  0  0  0
  1  2  1  0  0  0
  1 17  1  0  0  0
  1 18  1  0  0  0
  1 19  1  0  0  0
  2  3  1  0  0  0
  2 20  1  0  0  0
  2 21  1  0  0  0
  3  4  1  0  0  0
  3 22  1  0  0  0
  3 23  1  0  0  0
  4  5  2  0  0  0
  4 16  1  0  0  0
  5  6  1  0  0  0
  5 24  1  0  0  0
  6  7  2  0  0  0
  6 25  1  0  0  0
  7  8  1  0  0  0
  7 15  1  0  0  0
  8 26  1  0  0  0
  8 27  1  0  0  0
  8 41  1  0  0  0
  9 10  1  0  0  0
  9 11  1  0  0  0
  9 28  1  0  0  0
  9 41  1  0  0  0
 10 29  1  0  0  0
 10 30  1  0  0  0
 10 31  1  0  0  0
 11 12  1  0  0  0
 11 32  1  0  0  0
 11 33  1  0  0  0
 12 13  1  0  0  0
 12 14  1  0  0  0
 12 34  1  0  0  0
 13 14  1  0  0  0
 13 35  1  0  0  0
 13 36  1  0  0  0
 14 37  1  0  0  0
 14 38  1  0  0  0
 15 16  2  0  0  0
 15 39  1  0  0  0
 16 40  1  0  0  0
 41 42  1  0  0  0
 41 43  1  0  0  0
M  CHG  1  41   1
M  END
> <energy>
52.9628

> <chiral flag>
0

> <version>
0

> <i_ionizer_Ion_state_n>
1

> <i_ionizer_Tot_Q>
1

> <s_ionizer_Ion_centers>
41

> <s_ionizer_Ion_types>
N5

> <s_ionizer_Ion_ctrs_in>
9

> <r_ionizer_Ionization_penalty>
0.000148807

> <r_ionizer_Ionization_penalty_charging>
0.000148807

> <r_ionizer_Ionization_penalty_neutral>
0

$$$$
ZINC001258450348
                    3D
 Structure written by MMmdl.
 43 44  0  0  1  0            999 V2000
    4.6900   -0.3236   -2.0990 C   0  0  0  0  0  0
    4.0430   -0.3538   -0.7249 C   0  0  0  0  0  0
    3.8279    1.0553   -0.1587 C   0  0  0  0  0  0
    2.3617    1.3775    0.0000 C   0  0  0  0  0  0
    1.7517    1.2699    1.2526 C   0  0  0  0  0  0
    0.3877    1.5193    1.3969 C   0  0  0  0  0  0
   -0.4055    1.8610    0.2897 C   0  0  0  0  0  0
   -1.8932    2.0856    0.4692 C   0  0  0  0  0  0
   -3.2759    0.0513   -0.0485 C   0  0  1  0  0  0
   -2.7469    0.0711   -1.4897 C   0  0  0  0  0  0
   -3.3829   -1.4130    0.4691 C   0  0  0  0  0  0
   -2.0537   -2.1114    0.6371 C   0  0  0  0  0  0
   -1.9647   -3.4006    1.4140 C   0  0  0  0  0  0
   -1.3714   -2.1437    1.9837 C   0  0  0  0  0  0
    0.2103    1.9856   -0.9633 C   0  0  0  0  0  0
    1.5833    1.7472   -1.1047 C   0  0  0  0  0  0
    5.6790    0.1433   -2.0518 H   0  0  0  0  0  0
    4.0779    0.2349   -2.8138 H   0  0  0  0  0  0
    4.8158   -1.3422   -2.4764 H   0  0  0  0  0  0
    3.1044   -0.9175   -0.7785 H   0  0  0  0  0  0
    4.7016   -0.9106   -0.0502 H   0  0  0  0  0  0
    4.2976    1.8280   -0.7794 H   0  0  0  0  0  0
    4.3166    1.1255    0.8219 H   0  0  0  0  0  0
    2.3314    0.9841    2.1285 H   0  0  0  0  0  0
   -0.0648    1.4309    2.3855 H   0  0  0  0  0  0
   -2.3515    2.5160   -0.4268 H   0  0  0  0  0  0
   -2.0015    2.8647    1.2353 H   0  0  0  0  0  0
   -4.3032    0.4346   -0.0900 H   0  0  0  0  0  0
   -3.3044   -0.6387   -2.1111 H   0  0  0  0  0  0
   -1.6885   -0.1970   -1.5432 H   0  0  0  0  0  0
   -2.8788    1.0568   -1.9470 H   0  0  0  0  0  0
   -3.9301   -1.4213    1.4216 H   0  0  0  0  0  0
   -3.9880   -1.9985   -0.2358 H   0  0  0  0  0  0
   -1.4393   -2.0644   -0.2548 H   0  0  0  0  0  0
   -2.8623   -3.7920    1.8784 H   0  0  0  0  0  0
   -1.2785   -4.1633    1.0613 H   0  0  0  0  0  0
   -1.8732   -1.7010    2.8364 H   0  0  0  0  0  0
   -0.2907   -2.0404    1.9999 H   0  0  0  0  0  0
   -0.3744    2.2577   -1.8385 H   0  0  0  0  0  0
    2.0357    1.8401   -2.0899 H   0  0  0  0  0  0
   -2.5799    0.8691    1.0020 N   0  3  0  0  0  0
   -1.8776    0.2764    1.4600 H   0  0  0  0  0  0
   -3.2778    1.1689    1.6929 H   0  0  0  0  0  0
  1  2  1  0  0  0
  1 17  1  0  0  0
  1 18  1  0  0  0
  1 19  1  0  0  0
  2  3  1  0  0  0
  2 20  1  0  0  0
  2 21  1  0  0  0
  3  4  1  0  0  0
  3 22  1  0  0  0
  3 23  1  0  0  0
  4  5  2  0  0  0
  4 16  1  0  0  0
  5  6  1  0  0  0
  5 24  1  0  0  0
  6  7  2  0  0  0
  6 25  1  0  0  0
  7  8  1  0  0  0
  7 15  1  0  0  0
  8 26  1  0  0  0
  8 27  1  0  0  0
  8 41  1  0  0  0
  9 10  1  0  0  0
  9 11  1  0  0  0
  9 28  1  0  0  0
  9 41  1  0  0  0
 10 29  1  0  0  0
 10 30  1  0  0  0
 10 31  1  0  0  0
 11 12  1  0  0  0
 11 32  1  0  0  0
 11 33  1  0  0  0
 12 13  1  0  0  0
 12 14  1  0  0  0
 12 34  1  0  0  0
 13 14  1  0  0  0
 13 35  1  0  0  0
 13 36  1  0  0  0
 14 37  1  0  0  0
 14 38  1  0  0  0
 15 16  2  0  0  0
 15 39  1  0  0  0
 16 40  1  0  0  0
 41 42  1  0  0  0
 41 43  1  0  0  0
M  CHG  1  41   1
M  END
> <energy>
54.1571

> <chiral flag>
0

> <version>
0

> <i_ionizer_Ion_state_n>
1

> <i_ionizer_Tot_Q>
1

> <s_ionizer_Ion_centers>
41

> <s_ionizer_Ion_types>
N5

> <s_ionizer_Ion_ctrs_in>
9

> <r_ionizer_Ionization_penalty>
0.000148807

> <r_ionizer_Ionization_penalty_charging>
0.000148807

> <r_ionizer_Ionization_penalty_neutral>
0

$$$$
ZINC001258450351
                    3D
 Structure written by MMmdl.
 44 45  0  0  1  0            999 V2000
   -2.3889    2.2634    1.3392 C   0  0  0  0  0  0
   -3.1133    1.2851    0.4615 C   0  0  0  0  0  0
   -4.5110    1.3262    0.3537 C   0  0  0  0  0  0
   -5.1903    0.4245   -0.4707 C   0  0  0  0  0  0
   -4.4788   -0.5199   -1.2095 C   0  0  0  0  0  0
   -3.0900   -0.5734   -1.1099 C   0  0  0  0  0  0
   -2.4152    0.3061   -0.2585 C   0  0  0  0  0  0
   -1.0485    0.2582   -0.1680 O   0  0  0  0  0  0
   -0.6024   -0.9028    0.5565 C   0  0  0  0  0  0
    0.2346   -1.8126   -0.3731 C   0  0  2  0  0  0
    0.5085   -3.1632    0.2891 C   0  0  0  0  0  0
    2.5909   -1.0257   -0.0179 C   0  0  1  0  0  0
    3.6095   -2.1067   -0.3932 C   0  0  0  0  0  0
    3.2771    0.3548   -0.1589 C   0  0  0  0  0  0
    2.4606    1.4744    0.4247 C   0  0  0  0  0  0
    1.6461    2.3853   -0.4573 C   0  0  0  0  0  0
    2.9002    2.8972    0.1930 C   0  0  0  0  0  0
   -3.0743    3.0024    1.7673 H   0  0  0  0  0  0
   -1.8992    1.7408    2.1665 H   0  0  0  0  0  0
   -1.6390    2.8106    0.7600 H   0  0  0  0  0  0
   -5.0848    2.0663    0.9079 H   0  0  0  0  0  0
   -6.2737    0.4671   -0.5475 H   0  0  0  0  0  0
   -5.0053   -1.2069   -1.8675 H   0  0  0  0  0  0
   -2.5400   -1.2954   -1.7056 H   0  0  0  0  0  0
   -1.4385   -1.4661    0.9937 H   0  0  0  0  0  0
    0.0053   -0.5446    1.3963 H   0  0  0  0  0  0
   -0.3800   -2.0205   -1.2569 H   0  0  0  0  0  0
    1.0603   -3.8259   -0.3849 H   0  0  0  0  0  0
    1.0723   -3.0635    1.2221 H   0  0  0  0  0  0
   -0.4349   -3.6653    0.5291 H   0  0  0  0  0  0
    2.2970   -1.1455    1.0308 H   0  0  0  0  0  0
    4.5032   -2.0286    0.2357 H   0  0  0  0  0  0
    3.9263   -2.0080   -1.4381 H   0  0  0  0  0  0
    3.2101   -3.1146   -0.2581 H   0  0  0  0  0  0
    4.2330    0.3324    0.3807 H   0  0  0  0  0  0
    3.5199    0.5539   -1.2108 H   0  0  0  0  0  0
    2.0770    1.2385    1.4111 H   0  0  0  0  0  0
    0.6939    2.7352   -0.0771 H   0  0  0  0  0  0
    1.6594    2.2251   -1.5289 H   0  0  0  0  0  0
    3.7628    3.0735   -0.4399 H   0  0  0  0  0  0
    2.8013    3.5952    1.0167 H   0  0  0  0  0  0
    1.4315   -1.1147   -0.9628 N   0  3  0  0  0  0
    1.7310   -1.6309   -1.7983 H   0  0  0  0  0  0
    1.1550   -0.1625   -1.2297 H   0  0  0  0  0  0
  1  2  1  0  0  0
  1 18  1  0  0  0
  1 19  1  0  0  0
  1 20  1  0  0  0
  2  3  2  0  0  0
  2  7  1  0  0  0
  3  4  1  0  0  0
  3 21  1  0  0  0
  4  5  2  0  0  0
  4 22  1  0  0  0
  5  6  1  0  0  0
  5 23  1  0  0  0
  6  7  2  0  0  0
  6 24  1  0  0  0
  7  8  1  0  0  0
  8  9  1  0  0  0
  9 10  1  0  0  0
  9 25  1  0  0  0
  9 26  1  0  0  0
 10 11  1  0  0  0
 10 27  1  0  0  0
 10 42  1  0  0  0
 11 28  1  0  0  0
 11 29  1  0  0  0
 11 30  1  0  0  0
 12 13  1  0  0  0
 12 14  1  0  0  0
 12 31  1  0  0  0
 12 42  1  0  0  0
 13 32  1  0  0  0
 13 33  1  0  0  0
 13 34  1  0  0  0
 14 15  1  0  0  0
 14 35  1  0  0  0
 14 36  1  0  0  0
 15 16  1  0  0  0
 15 17  1  0  0  0
 15 37  1  0  0  0
 16 17  1  0  0  0
 16 38  1  0  0  0
 16 39  1  0  0  0
 17 40  1  0  0  0
 17 41  1  0  0  0
 42 43  1  0  0  0
 42 44  1  0  0  0
M  CHG  1  42   1
M  END
> <energy>
75.0635

> <chiral flag>
0

> <version>
0

> <i_ionizer_Ion_state_n>
1

> <i_ionizer_Tot_Q>
1

> <s_ionizer_Ion_centers>
42

> <s_ionizer_Ion_types>
N5

> <s_ionizer_Ion_ctrs_in>
12

> <r_ionizer_Ionization_penalty>
0.000148807

> <r_ionizer_Ionization_penalty_charging>
0.000148807

> <r_ionizer_Ionization_penalty_neutral>
0

$$$$
ZINC001258450352
                    3D
 Structure written by MMmdl.
 44 45  0  0  1  0            999 V2000
   -0.8294    1.8496   -2.2659 C   0  0  0  0  0  0
   -1.6414    0.6864   -2.7511 C   0  0  0  0  0  0
   -2.7421    0.9152   -3.5914 C   0  0  0  0  0  0
   -3.5227   -0.1462   -4.0492 C   0  0  0  0  0  0
   -3.2136   -1.4549   -3.6795 C   0  0  0  0  0  0
   -2.1351   -1.6941   -2.8291 C   0  0  0  0  0  0
   -1.3716   -0.6284   -2.3481 C   0  0  0  0  0  0
   -0.2920   -0.8853   -1.5438 O   0  0  0  0  0  0
   -0.6999   -1.2821   -0.2224 C   0  0  0  0  0  0
    0.4641   -2.0375    0.4628 C   0  0  2  0  0  0
    0.0654   -2.4996    1.8688 C   0  0  0  0  0  0
    1.8343    0.0451    0.8394 C   0  0  2  0  0  0
    3.0282    0.7112    0.1348 C   0  0  0  0  0  0
    1.9839    0.1921    2.3681 C   0  0  0  0  0  0
    1.6974    1.5926    2.8304 C   0  0  0  0  0  0
    0.2879    2.1315    2.8174 C   0  0  0  0  0  0
    0.9565    1.8108    4.1241 C   0  0  0  0  0  0
   -0.8679    2.6822   -2.9786 H   0  0  0  0  0  0
   -1.2216    2.2012   -1.3073 H   0  0  0  0  0  0
    0.2256    1.5824   -2.1477 H   0  0  0  0  0  0
   -2.9912    1.9283   -3.9027 H   0  0  0  0  0  0
   -4.3714    0.0440   -4.7032 H   0  0  0  0  0  0
   -3.8048   -2.2841   -4.0562 H   0  0  0  0  0  0
   -1.8852   -2.7132   -2.5500 H   0  0  0  0  0  0
   -0.9789   -0.3872    0.3480 H   0  0  0  0  0  0
   -1.5755   -1.9434   -0.2480 H   0  0  0  0  0  0
    0.6160   -2.9591   -0.1167 H   0  0  0  0  0  0
   -0.6915   -3.2899    1.8103 H   0  0  0  0  0  0
   -0.3664   -1.6863    2.4580 H   0  0  0  0  0  0
    0.9248   -2.9137    2.4081 H   0  0  0  0  0  0
    0.9454    0.5843    0.4936 H   0  0  0  0  0  0
    3.0449    1.7908    0.3223 H   0  0  0  0  0  0
    3.9802    0.2943    0.4818 H   0  0  0  0  0  0
    2.9714    0.5809   -0.9507 H   0  0  0  0  0  0
    2.9940   -0.0892    2.6867 H   0  0  0  0  0  0
    1.3141   -0.4859    2.8948 H   0  0  0  0  0  0
    2.4958    2.2803    2.5771 H   0  0  0  0  0  0
    0.1514    3.1740    2.5556 H   0  0  0  0  0  0
   -0.5168    1.4870    2.4821 H   0  0  0  0  0  0
    1.2736    2.6358    4.7517 H   0  0  0  0  0  0
    0.6002    0.9496    4.6782 H   0  0  0  0  0  0
    1.8337   -1.3950    0.4016 N   0  3  0  0  0  0
    2.4688   -1.9218    1.0126 H   0  0  0  0  0  0
    2.1730   -1.4417   -0.5664 H   0  0  0  0  0  0
  1  2  1  0  0  0
  1 18  1  0  0  0
  1 19  1  0  0  0
  1 20  1  0  0  0
  2  3  2  0  0  0
  2  7  1  0  0  0
  3  4  1  0  0  0
  3 21  1  0  0  0
  4  5  2  0  0  0
  4 22  1  0  0  0
  5  6  1  0  0  0
  5 23  1  0  0  0
  6  7  2  0  0  0
  6 24  1  0  0  0
  7  8  1  0  0  0
  8  9  1  0  0  0
  9 10  1  0  0  0
  9 25  1  0  0  0
  9 26  1  0  0  0
 10 11  1  0  0  0
 10 27  1  0  0  0
 10 42  1  0  0  0
 11 28  1  0  0  0
 11 29  1  0  0  0
 11 30  1  0  0  0
 12 13  1  0  0  0
 12 14  1  0  0  0
 12 31  1  0  0  0
 12 42  1  0  0  0
 13 32  1  0  0  0
 13 33  1  0  0  0
 13 34  1  0  0  0
 14 15  1  0  0  0
 14 35  1  0  0  0
 14 36  1  0  0  0
 15 16  1  0  0  0
 15 17  1  0  0  0
 15 37  1  0  0  0
 16 17  1  0  0  0
 16 38  1  0  0  0
 16 39  1  0  0  0
 17 40  1  0  0  0
 17 41  1  0  0  0
 42 43  1  0  0  0
 42 44  1  0  0  0
M  CHG  1  42   1
M  END
> <energy>
75.9837

> <chiral flag>
0

> <version>
0

> <i_ionizer_Ion_state_n>
1

> <i_ionizer_Tot_Q>
1

> <s_ionizer_Ion_centers>
42

> <s_ionizer_Ion_types>
N5

> <s_ionizer_Ion_ctrs_in>
12

> <r_ionizer_Ionization_penalty>
0.000148807

> <r_ionizer_Ionization_penalty_charging>
0.000148807

> <r_ionizer_Ionization_penalty_neutral>
0

$$$$
ZINC001258450353
                    3D
 Structure written by MMmdl.
 44 45  0  0  1  0            999 V2000
   -4.0171   -2.5373    0.7135 C   0  0  0  0  0  0
   -3.8626   -1.1617    0.1361 C   0  0  0  0  0  0
   -4.9069   -0.2291    0.2214 C   0  0  0  0  0  0
   -4.7570    1.0574   -0.3008 C   0  0  0  0  0  0
   -3.5639    1.4318   -0.9166 C   0  0  0  0  0  0
   -2.5180    0.5147   -1.0095 C   0  0  0  0  0  0
   -2.6627   -0.7647   -0.4667 C   0  0  0  0  0  0
   -1.6371   -1.6723   -0.5740 O   0  0  0  0  0  0
   -0.5698   -1.3528    0.3319 C   0  0  0  0  0  0
    0.8060   -1.5721   -0.3443 C   0  0  1  0  0  0
    0.8937   -0.8992   -1.7181 C   0  0  0  0  0  0
    1.9628    0.1640    1.0227 C   0  0  1  0  0  0
    1.6856    0.1047    2.5297 C   0  0  0  0  0  0
    3.3147    0.8752    0.7840 C   0  0  0  0  0  0
    3.5342    1.2384   -0.6573 C   0  0  0  0  0  0
    2.8140    2.4207   -1.2621 C   0  0  0  0  0  0
    4.2988    2.4840   -1.0312 C   0  0  0  0  0  0
   -3.3824   -2.6489    1.5993 H   0  0  0  0  0  0
   -3.7460   -3.2940   -0.0294 H   0  0  0  0  0  0
   -5.0512   -2.7295    1.0146 H   0  0  0  0  0  0
   -5.8502   -0.4985    0.6913 H   0  0  0  0  0  0
   -5.5762    1.7697   -0.2393 H   0  0  0  0  0  0
   -3.4454    2.4327   -1.3210 H   0  0  0  0  0  0
   -1.5977    0.8018   -1.5081 H   0  0  0  0  0  0
   -0.6602   -0.3304    0.7160 H   0  0  0  0  0  0
   -0.6616   -2.0275    1.1937 H   0  0  0  0  0  0
    0.8913   -2.6488   -0.5449 H   0  0  0  0  0  0
    0.7510    0.1829   -1.6503 H   0  0  0  0  0  0
    1.8693   -1.0891   -2.1820 H   0  0  0  0  0  0
    0.1327   -1.2965   -2.4007 H   0  0  0  0  0  0
    1.1844    0.7739    0.5504 H   0  0  0  0  0  0
    2.4917   -0.4180    3.0552 H   0  0  0  0  0  0
    1.6076    1.1152    2.9467 H   0  0  0  0  0  0
    0.7471   -0.4166    2.7484 H   0  0  0  0  0  0
    3.3417    1.7885    1.3899 H   0  0  0  0  0  0
    4.1445    0.2471    1.1290 H   0  0  0  0  0  0
    3.6843    0.3591   -1.2751 H   0  0  0  0  0  0
    2.4594    2.3282   -2.2829 H   0  0  0  0  0  0
    2.1726    3.0201   -0.6264 H   0  0  0  0  0  0
    4.6672    3.1341   -0.2449 H   0  0  0  0  0  0
    4.9458    2.4321   -1.8998 H   0  0  0  0  0  0
    2.0124   -1.2324    0.4836 N   0  3  0  0  0  0
    2.0661   -1.8880    1.2720 H   0  0  0  0  0  0
    2.8510   -1.3302   -0.1007 H   0  0  0  0  0  0
  1  2  1  0  0  0
  1 18  1  0  0  0
  1 19  1  0  0  0
  1 20  1  0  0  0
  2  3  2  0  0  0
  2  7  1  0  0  0
  3  4  1  0  0  0
  3 21  1  0  0  0
  4  5  2  0  0  0
  4 22  1  0  0  0
  5  6  1  0  0  0
  5 23  1  0  0  0
  6  7  2  0  0  0
  6 24  1  0  0  0
  7  8  1  0  0  0
  8  9  1  0  0  0
  9 10  1  0  0  0
  9 25  1  0  0  0
  9 26  1  0  0  0
 10 11  1  0  0  0
 10 27  1  0  0  0
 10 42  1  0  0  0
 11 28  1  0  0  0
 11 29  1  0  0  0
 11 30  1  0  0  0
 12 13  1  0  0  0
 12 14  1  0  0  0
 12 31  1  0  0  0
 12 42  1  0  0  0
 13 32  1  0  0  0
 13 33  1  0  0  0
 13 34  1  0  0  0
 14 15  1  0  0  0
 14 35  1  0  0  0
 14 36  1  0  0  0
 15 16  1  0  0  0
 15 17  1  0  0  0
 15 37  1  0  0  0
 16 17  1  0  0  0
 16 38  1  0  0  0
 16 39  1  0  0  0
 17 40  1  0  0  0
 17 41  1  0  0  0
 42 43  1  0  0  0
 42 44  1  0  0  0
M  CHG  1  42   1
M  END
> <energy>
77.494

> <chiral flag>
0

> <version>
0

> <i_ionizer_Ion_state_n>
1

> <i_ionizer_Tot_Q>
1

> <s_ionizer_Ion_centers>
42

> <s_ionizer_Ion_types>
N5

> <s_ionizer_Ion_ctrs_in>
12

> <r_ionizer_Ionization_penalty>
0.000148807

> <r_ionizer_Ionization_penalty_charging>
0.000148807

> <r_ionizer_Ionization_penalty_neutral>
0

$$$$
ZINC001258450354
                    3D
 Structure written by MMmdl.
 44 45  0  0  1  0            999 V2000
   -2.6818   -1.4186   -2.1288 C   0  0  0  0  0  0
   -2.9321   -0.3635   -1.0922 C   0  0  0  0  0  0
   -3.6430    0.7966   -1.4157 C   0  0  0  0  0  0
   -3.8698    1.7826   -0.4499 C   0  0  0  0  0  0
   -3.3985    1.6108    0.8520 C   0  0  0  0  0  0
   -2.6932    0.4616    1.1883 C   0  0  0  0  0  0
   -2.4291   -0.4981    0.2119 C   0  0  0  0  0  0
   -1.6571   -1.5716    0.5758 O   0  0  0  0  0  0
   -0.3062   -1.3709    0.1240 C   0  0  0  0  0  0
    0.6743   -1.6460    1.2836 C   0  0  1  0  0  0
    0.8724   -3.1578    1.4421 C   0  0  0  0  0  0
    2.1308    0.3957    1.4459 C   0  0  2  0  0  0
    0.8860    1.1643    1.9192 C   0  0  0  0  0  0
    2.9179    1.2073    0.3834 C   0  0  0  0  0  0
    2.1534    1.4887   -0.8890 C   0  0  0  0  0  0
    2.2895    0.5966   -2.0965 C   0  0  0  0  0  0
    2.9017    1.9678   -2.1088 C   0  0  0  0  0  0
   -1.6288   -1.4141   -2.4262 H   0  0  0  0  0  0
   -2.9471   -2.4101   -1.7435 H   0  0  0  0  0  0
   -3.2834   -1.2469   -3.0292 H   0  0  0  0  0  0
   -4.0162    0.9474   -2.4255 H   0  0  0  0  0  0
   -4.4118    2.6834   -0.7200 H   0  0  0  0  0  0
   -3.5719    2.3808    1.5981 H   0  0  0  0  0  0
   -2.3114    0.3244    2.1933 H   0  0  0  0  0  0
   -0.1239   -2.0616   -0.7055 H   0  0  0  0  0  0
   -0.1513   -0.3569   -0.2702 H   0  0  0  0  0  0
    0.2550   -1.3223    2.2423 H   0  0  0  0  0  0
    1.3303   -3.5886    0.5457 H   0  0  0  0  0  0
    1.5175   -3.3786    2.3015 H   0  0  0  0  0  0
   -0.0870   -3.6596    1.6125 H   0  0  0  0  0  0
    2.7832    0.3383    2.3294 H   0  0  0  0  0  0
    1.1591    2.1734    2.2429 H   0  0  0  0  0  0
    0.4127    0.6788    2.7788 H   0  0  0  0  0  0
    0.1326    1.2770    1.1381 H   0  0  0  0  0  0
    3.1997    2.1728    0.8247 H   0  0  0  0  0  0
    3.8573    0.6841    0.1534 H   0  0  0  0  0  0
    1.1950    1.9620   -0.7116 H   0  0  0  0  0  0
    1.4022    0.4308   -2.6992 H   0  0  0  0  0  0
    2.9508   -0.2601   -2.0357 H   0  0  0  0  0  0
    2.4338    2.7232   -2.7321 H   0  0  0  0  0  0
    3.9824    2.0404   -2.0641 H   0  0  0  0  0  0
    2.0047   -1.0295    0.9778 N   0  3  0  0  0  0
    2.7342   -1.5876    1.4367 H   0  0  0  0  0  0
    2.1463   -1.0509   -0.0389 H   0  0  0  0  0  0
  1  2  1  0  0  0
  1 18  1  0  0  0
  1 19  1  0  0  0
  1 20  1  0  0  0
  2  3  2  0  0  0
  2  7  1  0  0  0
  3  4  1  0  0  0
  3 21  1  0  0  0
  4  5  2  0  0  0
  4 22  1  0  0  0
  5  6  1  0  0  0
  5 23  1  0  0  0
  6  7  2  0  0  0
  6 24  1  0  0  0
  7  8  1  0  0  0
  8  9  1  0  0  0
  9 10  1  0  0  0
  9 25  1  0  0  0
  9 26  1  0  0  0
 10 11  1  0  0  0
 10 27  1  0  0  0
 10 42  1  0  0  0
 11 28  1  0  0  0
 11 29  1  0  0  0
 11 30  1  0  0  0
 12 13  1  0  0  0
 12 14  1  0  0  0
 12 31  1  0  0  0
 12 42  1  0  0  0
 13 32  1  0  0  0
 13 33  1  0  0  0
 13 34  1  0  0  0
 14 15  1  0  0  0
 14 35  1  0  0  0
 14 36  1  0  0  0
 15 16  1  0  0  0
 15 17  1  0  0  0
 15 37  1  0  0  0
 16 17  1  0  0  0
 16 38  1  0  0  0
 16 39  1  0  0  0
 17 40  1  0  0  0
 17 41  1  0  0  0
 42 43  1  0  0  0
 42 44  1  0  0  0
M  CHG  1  42   1
M  END
> <energy>
80.7067

> <chiral flag>
0

> <version>
0

> <i_ionizer_Ion_state_n>
1

> <i_ionizer_Tot_Q>
1

> <s_ionizer_Ion_centers>
42

> <s_ionizer_Ion_types>
N5

> <s_ionizer_Ion_ctrs_in>
12

> <r_ionizer_Ionization_penalty>
0.000148807

> <r_ionizer_Ionization_penalty_charging>
0.000148807

> <r_ionizer_Ionization_penalty_neutral>
0

$$$$
ZINC001258450510
                    3D
 Structure written by MMmdl.
 41 43  0  0  1  0            999 V2000
    2.6822    2.2824    3.1828 C   0  0  0  0  0  0
    2.0183    1.1398    2.4810 C   0  0  0  0  0  0
    1.0235    0.3890    3.1128 C   0  0  0  0  0  0
    0.3908   -0.6626    2.4416 C   0  0  0  0  0  0
    0.7295   -0.9958    1.1198 C   0  0  0  0  0  0
   -0.0424   -2.0577    0.3390 C   0  0  0  0  0  0
   -1.6305   -0.3328   -0.5872 C   0  0  2  0  0  0
   -3.1349   -0.1720   -0.8552 C   0  0  0  0  0  0
   -0.8160   -0.0173   -1.8615 C   0  0  0  0  0  0
   -0.5793    1.4642   -1.9994 C   0  0  0  0  0  0
   -0.1574    2.0440   -3.3203 C   0  0  0  0  0  0
   -1.5284    2.3320   -2.7780 C   0  0  0  0  0  0
    0.1440   -3.5069    0.7607 C   0  0  0  0  0  0
    0.7139   -3.0372   -0.5383 C   0  0  0  0  0  0
    1.7696   -0.2579    0.5245 C   0  0  0  0  0  0
    2.4081    0.7905    1.1896 C   0  0  0  0  0  0
    2.0620    2.6606    4.0020 H   0  0  0  0  0  0
    3.6453    1.9607    3.5881 H   0  0  0  0  0  0
    2.8406    3.1144    2.4875 H   0  0  0  0  0  0
    0.7250    0.6246    4.1302 H   0  0  0  0  0  0
   -0.4059   -1.2084    2.9422 H   0  0  0  0  0  0
   -1.3773    0.3839    0.2038 H   0  0  0  0  0  0
   -3.7117   -0.3198    0.0674 H   0  0  0  0  0  0
   -3.4909   -0.8966   -1.6003 H   0  0  0  0  0  0
   -3.3729    0.8345   -1.2194 H   0  0  0  0  0  0
    0.1698   -0.4888   -1.8257 H   0  0  0  0  0  0
   -1.3095   -0.4269   -2.7508 H   0  0  0  0  0  0
   -0.0996    1.8787   -1.1172 H   0  0  0  0  0  0
   -0.0813    1.3838   -4.1770 H   0  0  0  0  0  0
    0.5805    2.8393   -3.3055 H   0  0  0  0  0  0
   -2.3727    1.8666   -3.2747 H   0  0  0  0  0  0
   -1.7389    3.3208   -2.3856 H   0  0  0  0  0  0
   -0.7133   -4.1681    0.7234 H   0  0  0  0  0  0
    0.8352   -3.7318    1.5643 H   0  0  0  0  0  0
    0.2367   -3.3630   -1.4556 H   0  0  0  0  0  0
    1.7942   -2.9725   -0.6143 H   0  0  0  0  0  0
    2.0774   -0.4840   -0.4932 H   0  0  0  0  0  0
    3.1928    1.3429    0.6757 H   0  0  0  0  0  0
   -1.4640   -1.7384   -0.0830 N   0  3  0  0  0  0
   -1.7361   -2.3874   -0.8307 H   0  0  0  0  0  0
   -2.0821   -1.8700    0.7262 H   0  0  0  0  0  0
  1  2  1  0  0  0
  1 17  1  0  0  0
  1 18  1  0  0  0
  1 19  1  0  0  0
  2  3  2  0  0  0
  2 16  1  0  0  0
  3  4  1  0  0  0
  3 20  1  0  0  0
  4  5  2  0  0  0
  4 21  1  0  0  0
  5  6  1  0  0  0
  5 15  1  0  0  0
  6 13  1  0  0  0
  6 14  1  0  0  0
  6 39  1  0  0  0
  7  8  1  0  0  0
  7  9  1  0  0  0
  7 22  1  0  0  0
  7 39  1  0  0  0
  8 23  1  0  0  0
  8 24  1  0  0  0
  8 25  1  0  0  0
  9 10  1  0  0  0
  9 26  1  0  0  0
  9 27  1  0  0  0
 10 11  1  0  0  0
 10 12  1  0  0  0
 10 28  1  0  0  0
 11 12  1  0  0  0
 11 29  1  0  0  0
 11 30  1  0  0  0
 12 31  1  0  0  0
 12 32  1  0  0  0
 13 14  1  0  0  0
 13 33  1  0  0  0
 13 34  1  0  0  0
 14 35  1  0  0  0
 14 36  1  0  0  0
 15 16  2  0  0  0
 15 37  1  0  0  0
 16 38  1  0  0  0
 39 40  1  0  0  0
 39 41  1  0  0  0
M  CHG  1  39   1
M  END
> <energy>
34.6852

> <chiral flag>
0

> <version>
0

> <i_ionizer_Ion_state_n>
1

> <i_ionizer_Tot_Q>
1

> <s_ionizer_Ion_centers>
39

> <s_ionizer_Ion_types>
N5

> <s_ionizer_Ion_ctrs_in>
7

> <r_ionizer_Ionization_penalty>
0.000148807

> <r_ionizer_Ionization_penalty_charging>
0.000148807

> <r_ionizer_Ionization_penalty_neutral>
0

$$$$
ZINC001258450511
                    3D
 Structure written by MMmdl.
 41 43  0  0  1  0            999 V2000
    3.9488    2.6731    1.1522 C   0  0  0  0  0  0
    3.0865    1.5273    0.7130 C   0  0  0  0  0  0
    2.2856    1.6485   -0.4255 C   0  0  0  0  0  0
    1.4891    0.5802   -0.8502 C   0  0  0  0  0  0
    1.4626   -0.6392   -0.1527 C   0  0  0  0  0  0
    0.6161   -1.8154   -0.6234 C   0  0  0  0  0  0
   -1.7254   -1.0279   -0.3827 C   0  0  1  0  0  0
   -2.8979   -1.8662   -0.8982 C   0  0  0  0  0  0
   -2.1518   -0.1051    0.7811 C   0  0  0  0  0  0
   -3.0392    1.0276    0.3378 C   0  0  0  0  0  0
   -2.4392    2.3250   -0.1375 C   0  0  0  0  0  0
   -3.1490    2.2670    1.1867 C   0  0  0  0  0  0
    1.3475   -3.1064   -0.9530 C   0  0  0  0  0  0
    0.7416   -2.2963   -2.0540 C   0  0  0  0  0  0
    2.2531   -0.7316    1.0065 C   0  0  0  0  0  0
    3.0542    0.3321    1.4353 C   0  0  0  0  0  0
    4.6193    2.3817    1.9672 H   0  0  0  0  0  0
    3.3252    3.5026    1.5003 H   0  0  0  0  0  0
    4.5730    3.0162    0.3203 H   0  0  0  0  0  0
    2.2842    2.5725   -0.9990 H   0  0  0  0  0  0
    0.8807    0.6975   -1.7440 H   0  0  0  0  0  0
   -1.3658   -0.4087   -1.2129 H   0  0  0  0  0  0
   -3.6926   -1.2324   -1.3040 H   0  0  0  0  0  0
   -2.5781   -2.5365   -1.7041 H   0  0  0  0  0  0
   -3.3317   -2.4812   -0.1023 H   0  0  0  0  0  0
   -2.6819   -0.6847    1.5478 H   0  0  0  0  0  0
   -1.2572    0.3088    1.2650 H   0  0  0  0  0  0
   -3.9574    0.6861   -0.1275 H   0  0  0  0  0  0
   -1.3602    2.4365   -0.1258 H   0  0  0  0  0  0
   -2.9287    2.8408   -0.9559 H   0  0  0  0  0  0
   -2.5488    2.3366    2.0869 H   0  0  0  0  0  0
   -4.1221    2.7396    1.2666 H   0  0  0  0  0  0
    2.4294   -3.1277   -0.8866 H   0  0  0  0  0  0
    0.8738   -4.0471   -0.6971 H   0  0  0  0  0  0
    1.4204   -1.7807   -2.7235 H   0  0  0  0  0  0
   -0.1383   -2.6939   -2.5458 H   0  0  0  0  0  0
    2.2532   -1.6582    1.5773 H   0  0  0  0  0  0
    3.6566    0.2111    2.3330 H   0  0  0  0  0  0
   -0.6908   -1.9972    0.0857 N   0  3  0  0  0  0
   -1.0299   -2.9512   -0.0850 H   0  0  0  0  0  0
   -0.5425   -1.8618    1.0927 H   0  0  0  0  0  0
  1  2  1  0  0  0
  1 17  1  0  0  0
  1 18  1  0  0  0
  1 19  1  0  0  0
  2  3  2  0  0  0
  2 16  1  0  0  0
  3  4  1  0  0  0
  3 20  1  0  0  0
  4  5  2  0  0  0
  4 21  1  0  0  0
  5  6  1  0  0  0
  5 15  1  0  0  0
  6 13  1  0  0  0
  6 14  1  0  0  0
  6 39  1  0  0  0
  7  8  1  0  0  0
  7  9  1  0  0  0
  7 22  1  0  0  0
  7 39  1  0  0  0
  8 23  1  0  0  0
  8 24  1  0  0  0
  8 25  1  0  0  0
  9 10  1  0  0  0
  9 26  1  0  0  0
  9 27  1  0  0  0
 10 11  1  0  0  0
 10 12  1  0  0  0
 10 28  1  0  0  0
 11 12  1  0  0  0
 11 29  1  0  0  0
 11 30  1  0  0  0
 12 31  1  0  0  0
 12 32  1  0  0  0
 13 14  1  0  0  0
 13 33  1  0  0  0
 13 34  1  0  0  0
 14 35  1  0  0  0
 14 36  1  0  0  0
 15 16  2  0  0  0
 15 37  1  0  0  0
 16 38  1  0  0  0
 39 40  1  0  0  0
 39 41  1  0  0  0
M  CHG  1  39   1
M  END
> <energy>
32.5838

> <chiral flag>
0

> <version>
0

> <i_ionizer_Ion_state_n>
1

> <i_ionizer_Tot_Q>
1

> <s_ionizer_Ion_centers>
39

> <s_ionizer_Ion_types>
N5

> <s_ionizer_Ion_ctrs_in>
7

> <r_ionizer_Ionization_penalty>
0.000148807

> <r_ionizer_Ionization_penalty_charging>
0.000148807

> <r_ionizer_Ionization_penalty_neutral>
0

$$$$
ZINC001258450684
                    3D
 Structure written by MMmdl.
 42 43  0  0  1  0            999 V2000
   -0.5793   -3.2521    0.8073 C   0  0  0  0  0  0
    0.2689   -1.9688    0.9021 C   0  0  0  0  0  0
    1.5098   -2.3048    1.7526 C   0  0  0  0  0  0
    0.6554   -1.4121   -0.5029 C   0  0  1  0  0  0
    1.2198    1.0549   -0.2328 C   0  0  2  0  0  0
    2.2813    1.9776   -0.8483 C   0  0  0  0  0  0
    1.0458    1.4005    1.2617 C   0  0  0  0  0  0
    0.3035    2.6941    1.5143 C   0  0  0  0  0  0
   -0.9737    2.6560    2.3237 C   0  0  0  0  0  0
   -1.0273    3.0190    0.8696 C   0  0  0  0  0  0
   -0.5333   -1.1273   -1.4305 C   0  0  0  0  0  0
   -1.7037   -0.5112   -0.9754 C   0  0  0  0  0  0
   -2.7049   -0.1949   -1.8968 C   0  0  0  0  0  0
   -2.5263   -0.5150   -3.2329 C   0  0  0  0  0  0
   -1.3520   -1.1425   -3.6026 C   0  0  0  0  0  0
   -0.3628   -1.4479   -2.7411 N   0  0  0  0  0  0
    0.0251   -4.0982    0.4611 H   0  0  0  0  0  0
   -0.9730   -3.5070    1.8007 H   0  0  0  0  0  0
   -1.4345   -3.1452    0.1340 H   0  0  0  0  0  0
   -0.3297   -1.2267    1.4457 H   0  0  0  0  0  0
    2.0836   -3.1248    1.3024 H   0  0  0  0  0  0
    2.1806   -1.4538    1.8906 H   0  0  0  0  0  0
    1.1981   -2.6270    2.7522 H   0  0  0  0  0  0
    1.1749   -2.2434   -0.9985 H   0  0  0  0  0  0
    0.3015    1.2708   -0.7808 H   0  0  0  0  0  0
    2.5037    1.6997   -1.8853 H   0  0  0  0  0  0
    1.9392    3.0165   -0.8615 H   0  0  0  0  0  0
    3.2192    1.9367   -0.2847 H   0  0  0  0  0  0
    0.5187    0.6043    1.7853 H   0  0  0  0  0  0
    2.0278    1.4704    1.7445 H   0  0  0  0  0  0
    0.9821    3.5244    1.6958 H   0  0  0  0  0  0
   -1.3637    1.6922    2.6354 H   0  0  0  0  0  0
   -1.1349    3.4455    3.0494 H   0  0  0  0  0  0
   -1.4624    2.3104    0.1721 H   0  0  0  0  0  0
   -1.2315    4.0507    0.6060 H   0  0  0  0  0  0
   -1.8483   -0.2560    0.0705 H   0  0  0  0  0  0
   -3.6121    0.3086   -1.5788 H   0  0  0  0  0  0
   -3.2772   -0.2761   -3.9742 H   0  0  0  0  0  0
   -1.1601   -1.4112   -4.6348 H   0  0  0  0  0  0
    1.7219   -0.3302   -0.5151 N   0  3  0  0  0  0
    2.4238   -0.5658    0.1962 H   0  0  0  0  0  0
    2.1623   -0.3265   -1.4426 H   0  0  0  0  0  0
  1  2  1  0  0  0
  1 17  1  0  0  0
  1 18  1  0  0  0
  1 19  1  0  0  0
  2  3  1  0  0  0
  2  4  1  0  0  0
  2 20  1  0  0  0
  3 21  1  0  0  0
  3 22  1  0  0  0
  3 23  1  0  0  0
  4 11  1  0  0  0
  4 24  1  0  0  0
  4 40  1  0  0  0
  5  6  1  0  0  0
  5  7  1  0  0  0
  5 25  1  0  0  0
  5 40  1  0  0  0
  6 26  1  0  0  0
  6 27  1  0  0  0
  6 28  1  0  0  0
  7  8  1  0  0  0
  7 29  1  0  0  0
  7 30  1  0  0  0
  8  9  1  0  0  0
  8 10  1  0  0  0
  8 31  1  0  0  0
  9 10  1  0  0  0
  9 32  1  0  0  0
  9 33  1  0  0  0
 10 34  1  0  0  0
 10 35  1  0  0  0
 11 12  2  0  0  0
 11 16  1  0  0  0
 12 13  1  0  0  0
 12 36  1  0  0  0
 13 14  2  0  0  0
 13 37  1  0  0  0
 14 15  1  0  0  0
 14 38  1  0  0  0
 15 16  2  0  0  0
 15 39  1  0  0  0
 40 41  1  0  0  0
 40 42  1  0  0  0
M  CHG  1  40   1
M  END
> <energy>
80.3605

> <chiral flag>
0

> <version>
0

> <i_ionizer_Ion_state_n>
1

> <i_ionizer_Tot_Q>
1

> <s_ionizer_Ion_centers>
40

> <s_ionizer_Ion_types>
N5

> <s_ionizer_Ion_ctrs_in>
5

> <r_ionizer_Ionization_penalty>
0.0075612

> <r_ionizer_Ionization_penalty_charging>
0.000148807

> <r_ionizer_Ionization_penalty_neutral>
0.00741239

$$$$
ZINC001258450685
                    3D
 Structure written by MMmdl.
 42 43  0  0  1  0            999 V2000
    3.6774   -0.4262   -0.6595 C   0  0  0  0  0  0
    2.3526   -1.1818   -0.4987 C   0  0  0  0  0  0
    2.2867   -1.8144    0.8965 C   0  0  0  0  0  0
    1.1162   -0.3013   -0.8871 C   0  0  2  0  0  0
   -1.3261   -0.6181   -1.5115 C   0  0  2  0  0  0
   -1.1335    0.4241   -2.6183 C   0  0  0  0  0  0
   -2.3838   -0.1330   -0.4908 C   0  0  0  0  0  0
   -2.8375   -1.2206    0.4519 C   0  0  0  0  0  0
   -3.9785   -0.9520    1.4025 C   0  0  0  0  0  0
   -2.5848   -1.1133    1.9347 C   0  0  0  0  0  0
    1.0342    0.9929   -0.0808 C   0  0  0  0  0  0
    0.5512    1.0148    1.2257 C   0  0  0  0  0  0
    0.5045    2.2219    1.9175 C   0  0  0  0  0  0
    0.9430    3.3812    1.2914 C   0  0  0  0  0  0
    1.4118    3.2820   -0.0063 C   0  0  0  0  0  0
    1.4711    2.1239   -0.6991 N   0  0  0  0  0  0
    4.5254   -1.1047   -0.5151 H   0  0  0  0  0  0
    3.7627    0.0020   -1.6639 H   0  0  0  0  0  0
    3.7768    0.3833    0.0713 H   0  0  0  0  0  0
    2.3861   -2.0149   -1.2160 H   0  0  0  0  0  0
    2.3787   -1.0670    1.6903 H   0  0  0  0  0  0
    1.3547   -2.3677    1.0465 H   0  0  0  0  0  0
    3.1103   -2.5259    1.0267 H   0  0  0  0  0  0
    1.2988   -0.0186   -1.9319 H   0  0  0  0  0  0
   -1.7697   -1.4919   -2.0108 H   0  0  0  0  0  0
   -2.0852    0.6178   -3.1257 H   0  0  0  0  0  0
   -0.4339    0.0678   -3.3816 H   0  0  0  0  0  0
   -0.7778    1.3821   -2.2290 H   0  0  0  0  0  0
   -3.2690    0.2042   -1.0450 H   0  0  0  0  0  0
   -2.0191    0.7387    0.0630 H   0  0  0  0  0  0
   -2.8172   -2.2055   -0.0019 H   0  0  0  0  0  0
   -4.4168    0.0391    1.4223 H   0  0  0  0  0  0
   -4.6868   -1.7528    1.5870 H   0  0  0  0  0  0
   -2.0996   -0.2277    2.3254 H   0  0  0  0  0  0
   -2.3376   -2.0243    2.4666 H   0  0  0  0  0  0
    0.2035    0.1005    1.6949 H   0  0  0  0  0  0
    0.1243    2.2547    2.9343 H   0  0  0  0  0  0
    0.9168    4.3373    1.8003 H   0  0  0  0  0  0
    1.7629    4.1589   -0.5424 H   0  0  0  0  0  0
   -0.1102   -1.1913   -0.8210 N   0  3  0  0  0  0
    0.1186   -2.0891   -1.2635 H   0  0  0  0  0  0
   -0.3435   -1.3462    0.1668 H   0  0  0  0  0  0
  1  2  1  0  0  0
  1 17  1  0  0  0
  1 18  1  0  0  0
  1 19  1  0  0  0
  2  3  1  0  0  0
  2  4  1  0  0  0
  2 20  1  0  0  0
  3 21  1  0  0  0
  3 22  1  0  0  0
  3 23  1  0  0  0
  4 11  1  0  0  0
  4 24  1  0  0  0
  4 40  1  0  0  0
  5  6  1  0  0  0
  5  7  1  0  0  0
  5 25  1  0  0  0
  5 40  1  0  0  0
  6 26  1  0  0  0
  6 27  1  0  0  0
  6 28  1  0  0  0
  7  8  1  0  0  0
  7 29  1  0  0  0
  7 30  1  0  0  0
  8  9  1  0  0  0
  8 10  1  0  0  0
  8 31  1  0  0  0
  9 10  1  0  0  0
  9 32  1  0  0  0
  9 33  1  0  0  0
 10 34  1  0  0  0
 10 35  1  0  0  0
 11 12  2  0  0  0
 11 16  1  0  0  0
 12 13  1  0  0  0
 12 36  1  0  0  0
 13 14  2  0  0  0
 13 37  1  0  0  0
 14 15  1  0  0  0
 14 38  1  0  0  0
 15 16  2  0  0  0
 15 39  1  0  0  0
 40 41  1  0  0  0
 40 42  1  0  0  0
M  CHG  1  40   1
M  END
> <energy>
75.0296

> <chiral flag>
0

> <version>
0

> <i_ionizer_Ion_state_n>
1

> <i_ionizer_Tot_Q>
1

> <s_ionizer_Ion_centers>
40

> <s_ionizer_Ion_types>
N5

> <s_ionizer_Ion_ctrs_in>
5

> <r_ionizer_Ionization_penalty>
0.0075612

> <r_ionizer_Ionization_penalty_charging>
0.000148807

> <r_ionizer_Ionization_penalty_neutral>
0.00741239

$$$$
ZINC001258450686
                    3D
 Structure written by MMmdl.
 42 43  0  0  1  0            999 V2000
    3.1826   -0.6193    1.2768 C   0  0  0  0  0  0
    2.7575   -0.6778   -0.1931 C   0  0  0  0  0  0
    3.7848    0.0654   -1.0556 C   0  0  0  0  0  0
    1.2982   -0.1944   -0.4683 C   0  0  2  0  0  0
   -1.0046   -1.0805   -0.4201 C   0  0  1  0  0  0
   -1.0206   -2.0431   -1.6149 C   0  0  0  0  0  0
   -2.0475   -1.4936    0.6446 C   0  0  0  0  0  0
   -3.4609   -1.4763    0.1231 C   0  0  0  0  0  0
   -4.6044   -1.1127    1.0357 C   0  0  0  0  0  0
   -4.1878   -0.1696   -0.0590 C   0  0  0  0  0  0
    1.0914    1.2894   -0.1554 C   0  0  0  0  0  0
    0.7153    1.7239    1.1177 C   0  0  0  0  0  0
    0.5699    3.0890    1.3573 C   0  0  0  0  0  0
    0.7963    3.9866    0.3228 C   0  0  0  0  0  0
    1.1568    3.4798   -0.9128 C   0  0  0  0  0  0
    1.3080    2.1623   -1.1735 N   0  0  0  0  0  0
    4.1714   -1.0745    1.4039 H   0  0  0  0  0  0
    3.2538    0.4106    1.6398 H   0  0  0  0  0  0
    2.4877   -1.1682    1.9201 H   0  0  0  0  0  0
    2.8084   -1.7344   -0.4941 H   0  0  0  0  0  0
    3.8685    1.1201   -0.7725 H   0  0  0  0  0  0
    4.7779   -0.3843   -0.9428 H   0  0  0  0  0  0
    3.5121    0.0104   -2.1154 H   0  0  0  0  0  0
    1.1554   -0.3093   -1.5508 H   0  0  0  0  0  0
   -1.2603   -0.0737   -0.7724 H   0  0  0  0  0  0
   -0.8986   -3.0824   -1.2912 H   0  0  0  0  0  0
   -0.2231   -1.8192   -2.3297 H   0  0  0  0  0  0
   -1.9637   -1.9679   -2.1651 H   0  0  0  0  0  0
   -1.8308   -2.5030    1.0209 H   0  0  0  0  0  0
   -1.9672   -0.8153    1.5045 H   0  0  0  0  0  0
   -3.6480   -2.2701   -0.5915 H   0  0  0  0  0  0
   -5.5411   -1.6485    0.9163 H   0  0  0  0  0  0
   -4.3819   -0.8297    2.0590 H   0  0  0  0  0  0
   -3.6843    0.7465    0.2256 H   0  0  0  0  0  0
   -4.8381   -0.0682   -0.9208 H   0  0  0  0  0  0
    0.5390    1.0089    1.9147 H   0  0  0  0  0  0
    0.2785    3.4438    2.3424 H   0  0  0  0  0  0
    0.6945    5.0549    0.4761 H   0  0  0  0  0  0
    1.3415    4.1409   -1.7542 H   0  0  0  0  0  0
    0.3308   -1.0949    0.2403 N   0  3  0  0  0  0
    0.6981   -2.0537    0.2313 H   0  0  0  0  0  0
    0.2274   -0.7770    1.2111 H   0  0  0  0  0  0
  1  2  1  0  0  0
  1 17  1  0  0  0
  1 18  1  0  0  0
  1 19  1  0  0  0
  2  3  1  0  0  0
  2  4  1  0  0  0
  2 20  1  0  0  0
  3 21  1  0  0  0
  3 22  1  0  0  0
  3 23  1  0  0  0
  4 11  1  0  0  0
  4 24  1  0  0  0
  4 40  1  0  0  0
  5  6  1  0  0  0
  5  7  1  0  0  0
  5 25  1  0  0  0
  5 40  1  0  0  0
  6 26  1  0  0  0
  6 27  1  0  0  0
  6 28  1  0  0  0
  7  8  1  0  0  0
  7 29  1  0  0  0
  7 30  1  0  0  0
  8  9  1  0  0  0
  8 10  1  0  0  0
  8 31  1  0  0  0
  9 10  1  0  0  0
  9 32  1  0  0  0
  9 33  1  0  0  0
 10 34  1  0  0  0
 10 35  1  0  0  0
 11 12  2  0  0  0
 11 16  1  0  0  0
 12 13  1  0  0  0
 12 36  1  0  0  0
 13 14  2  0  0  0
 13 37  1  0  0  0
 14 15  1  0  0  0
 14 38  1  0  0  0
 15 16  2  0  0  0
 15 39  1  0  0  0
 40 41  1  0  0  0
 40 42  1  0  0  0
M  CHG  1  40   1
M  END
> <energy>
67.8345

> <chiral flag>
0

> <version>
0

> <i_ionizer_Ion_state_n>
1

> <i_ionizer_Tot_Q>
1

> <s_ionizer_Ion_centers>
40

> <s_ionizer_Ion_types>
N5

> <s_ionizer_Ion_ctrs_in>
5

> <r_ionizer_Ionization_penalty>
0.0075612

> <r_ionizer_Ionization_penalty_charging>
0.000148807

> <r_ionizer_Ionization_penalty_neutral>
0.00741239

$$$$
ZINC001258450687
                    3D
 Structure written by MMmdl.
 42 43  0  0  1  0            999 V2000
    1.5763   -1.9777   -1.2974 C   0  0  0  0  0  0
    2.3252   -1.3476   -0.1221 C   0  0  0  0  0  0
    3.0499   -2.4746    0.6364 C   0  0  0  0  0  0
    1.4535   -0.4929    0.8591 C   0  0  1  0  0  0
   -1.1128   -0.8181    1.0214 C   0  0  1  0  0  0
   -1.5889    0.4545    1.7339 C   0  0  0  0  0  0
   -1.4524   -0.8217   -0.4812 C   0  0  0  0  0  0
   -2.9232   -0.6453   -0.7579 C   0  0  0  0  0  0
   -3.4922    0.7133   -1.0795 C   0  0  0  0  0  0
   -3.3782   -0.3255   -2.1593 C   0  0  0  0  0  0
    1.3412    1.0022    0.5631 C   0  0  0  0  0  0
    1.3281    1.5237   -0.7290 C   0  0  0  0  0  0
    1.2481    2.9040   -0.9103 C   0  0  0  0  0  0
    1.1921    3.7378    0.1972 C   0  0  0  0  0  0
    1.2220    3.1540    1.4488 C   0  0  0  0  0  0
    1.2977    1.8205    1.6533 N   0  0  0  0  0  0
    1.0241   -1.2411   -1.8827 H   0  0  0  0  0  0
    0.8802   -2.7521   -0.9605 H   0  0  0  0  0  0
    2.2843   -2.4603   -1.9813 H   0  0  0  0  0  0
    3.1093   -0.7008   -0.5385 H   0  0  0  0  0  0
    3.7012   -3.0403   -0.0389 H   0  0  0  0  0  0
    3.6811   -2.0675    1.4334 H   0  0  0  0  0  0
    2.3407   -3.1767    1.0873 H   0  0  0  0  0  0
    2.1030   -0.4562    1.7497 H   0  0  0  0  0  0
   -1.7217   -1.6221    1.4594 H   0  0  0  0  0  0
   -2.6815    0.4578    1.8186 H   0  0  0  0  0  0
   -1.1985    0.5145    2.7558 H   0  0  0  0  0  0
   -1.3063    1.3621    1.1959 H   0  0  0  0  0  0
   -1.1713   -1.7901   -0.9074 H   0  0  0  0  0  0
   -0.8850   -0.0542   -1.0122 H   0  0  0  0  0  0
   -3.5358   -1.3400   -0.1932 H   0  0  0  0  0  0
   -4.4811    0.9497   -0.7031 H   0  0  0  0  0  0
   -2.8203    1.5634   -1.1191 H   0  0  0  0  0  0
   -4.2905   -0.7915   -2.5146 H   0  0  0  0  0  0
   -2.6294   -0.1769   -2.9290 H   0  0  0  0  0  0
    1.3790    0.8838   -1.6006 H   0  0  0  0  0  0
    1.2327    3.3226   -1.9127 H   0  0  0  0  0  0
    1.1294    4.8142    0.0879 H   0  0  0  0  0  0
    1.1827    3.7579    2.3505 H   0  0  0  0  0  0
    0.2760   -1.2822    1.4376 N   0  3  0  0  0  0
    0.3802   -2.2606    1.1445 H   0  0  0  0  0  0
    0.3321   -1.2237    2.4612 H   0  0  0  0  0  0
  1  2  1  0  0  0
  1 17  1  0  0  0
  1 18  1  0  0  0
  1 19  1  0  0  0
  2  3  1  0  0  0
  2  4  1  0  0  0
  2 20  1  0  0  0
  3 21  1  0  0  0
  3 22  1  0  0  0
  3 23  1  0  0  0
  4 11  1  0  0  0
  4 24  1  0  0  0
  4 40  1  0  0  0
  5  6  1  0  0  0
  5  7  1  0  0  0
  5 25  1  0  0  0
  5 40  1  0  0  0
  6 26  1  0  0  0
  6 27  1  0  0  0
  6 28  1  0  0  0
  7  8  1  0  0  0
  7 29  1  0  0  0
  7 30  1  0  0  0
  8  9  1  0  0  0
  8 10  1  0  0  0
  8 31  1  0  0  0
  9 10  1  0  0  0
  9 32  1  0  0  0
  9 33  1  0  0  0
 10 34  1  0  0  0
 10 35  1  0  0  0
 11 12  2  0  0  0
 11 16  1  0  0  0
 12 13  1  0  0  0
 12 36  1  0  0  0
 13 14  2  0  0  0
 13 37  1  0  0  0
 14 15  1  0  0  0
 14 38  1  0  0  0
 15 16  2  0  0  0
 15 39  1  0  0  0
 40 41  1  0  0  0
 40 42  1  0  0  0
M  CHG  1  40   1
M  END
> <energy>
83.0633

> <chiral flag>
0

> <version>
0

> <i_ionizer_Ion_state_n>
1

> <i_ionizer_Tot_Q>
1

> <s_ionizer_Ion_centers>
40

> <s_ionizer_Ion_types>
N5

> <s_ionizer_Ion_ctrs_in>
5

> <r_ionizer_Ionization_penalty>
0.0075612

> <r_ionizer_Ionization_penalty_charging>
0.000148807

> <r_ionizer_Ionization_penalty_neutral>
0.00741239

$$$$
ZINC001258450718
                    3D
 Structure written by MMmdl.
 43 45  0  0  1  0            999 V2000
    2.4389   -0.6640    2.2113 C   0  0  0  0  0  0
    2.2038   -0.6216    0.7286 C   0  0  0  0  0  0
    2.8451   -1.5767   -0.0797 C   0  0  0  0  0  0
    2.6283   -1.5939   -1.4496 C   0  0  0  0  0  0
    1.7629   -0.6629   -1.9728 C   0  0  0  0  0  0
    1.1299    0.2704   -1.2332 N   0  0  0  0  0  0
    1.3645    0.3246    0.1068 C   0  0  0  0  0  0
    0.6301    1.4028    0.9227 C   0  0  1  0  0  0
   -1.7220    0.3932    0.8119 C   0  0  1  0  0  0
   -2.0930    1.1159   -0.4819 C   0  0  0  0  0  0
   -1.5271   -1.1320    0.6398 C   0  0  0  0  0  0
   -2.6930   -1.8312   -0.0041 C   0  0  0  0  0  0
   -2.5801   -2.3232   -1.4241 C   0  0  0  0  0  0
   -2.5841   -3.3081   -0.2888 C   0  0  0  0  0  0
    0.4934    2.7924    0.3257 C   0  0  0  0  0  0
    1.6890    3.4563   -0.3290 C   0  0  0  0  0  0
    0.4482    3.2001   -1.1333 C   0  0  0  0  0  0
    1.4916   -0.7596    2.7472 H   0  0  0  0  0  0
    2.9637    0.2342    2.5476 H   0  0  0  0  0  0
    3.0488   -1.5271    2.4985 H   0  0  0  0  0  0
    3.5070   -2.3182    0.3587 H   0  0  0  0  0  0
    3.1138   -2.3236   -2.0865 H   0  0  0  0  0  0
    1.5387   -0.6355   -3.0348 H   0  0  0  0  0  0
    1.3061    1.6193    1.7615 H   0  0  0  0  0  0
   -2.6054    0.5038    1.4568 H   0  0  0  0  0  0
   -3.0531    0.7529   -0.8634 H   0  0  0  0  0  0
   -1.3560    0.9654   -1.2723 H   0  0  0  0  0  0
   -2.2183    2.1901   -0.3085 H   0  0  0  0  0  0
   -1.3802   -1.5854    1.6302 H   0  0  0  0  0  0
   -0.6246   -1.3465    0.0636 H   0  0  0  0  0  0
   -3.6503   -1.4730    0.3516 H   0  0  0  0  0  0
   -1.6478   -2.1528   -1.9516 H   0  0  0  0  0  0
   -3.4596   -2.2757   -2.0537 H   0  0  0  0  0  0
   -1.6549   -3.8083   -0.0432 H   0  0  0  0  0  0
   -3.4676   -3.9209   -0.1592 H   0  0  0  0  0  0
   -0.0811    3.4184    1.0056 H   0  0  0  0  0  0
    1.9148    4.4804   -0.0574 H   0  0  0  0  0  0
    2.5621    2.8572   -0.5660 H   0  0  0  0  0  0
    0.4978    2.4567   -1.9162 H   0  0  0  0  0  0
   -0.1677    4.0531   -1.3992 H   0  0  0  0  0  0
   -0.6339    1.0040    1.6689 N   0  3  0  0  0  0
   -0.3752    0.3197    2.3893 H   0  0  0  0  0  0
   -1.0170    1.8446    2.1171 H   0  0  0  0  0  0
  1  2  1  0  0  0
  1 18  1  0  0  0
  1 19  1  0  0  0
  1 20  1  0  0  0
  2  3  2  0  0  0
  2  7  1  0  0  0
  3  4  1  0  0  0
  3 21  1  0  0  0
  4  5  2  0  0  0
  4 22  1  0  0  0
  5  6  1  0  0  0
  5 23  1  0  0  0
  6  7  2  0  0  0
  7  8  1  0  0  0
  8 15  1  0  0  0
  8 24  1  0  0  0
  8 41  1  0  0  0
  9 10  1  0  0  0
  9 11  1  0  0  0
  9 25  1  0  0  0
  9 41  1  0  0  0
 10 26  1  0  0  0
 10 27  1  0  0  0
 10 28  1  0  0  0
 11 12  1  0  0  0
 11 29  1  0  0  0
 11 30  1  0  0  0
 12 13  1  0  0  0
 12 14  1  0  0  0
 12 31  1  0  0  0
 13 14  1  0  0  0
 13 32  1  0  0  0
 13 33  1  0  0  0
 14 34  1  0  0  0
 14 35  1  0  0  0
 15 16  1  0  0  0
 15 17  1  0  0  0
 15 36  1  0  0  0
 16 17  1  0  0  0
 16 37  1  0  0  0
 16 38  1  0  0  0
 17 39  1  0  0  0
 17 40  1  0  0  0
 41 42  1  0  0  0
 41 43  1  0  0  0
M  CHG  1  41   1
M  END
> <energy>
106.005

> <chiral flag>
0

> <version>
0

> <i_ionizer_Ion_state_n>
2

> <i_ionizer_Tot_Q>
1

> <s_ionizer_Ion_centers>
41

> <s_ionizer_Ion_types>
N5

> <s_ionizer_Ion_ctrs_in>
9

> <r_ionizer_Ionization_penalty>
0.0075612

> <r_ionizer_Ionization_penalty_charging>
0.000148807

> <r_ionizer_Ionization_penalty_neutral>
0.00741239

$$$$
ZINC001258450720
                    3D
 Structure written by MMmdl.
 43 45  0  0  1  0            999 V2000
    0.2747   -2.4188   -1.5530 C   0  0  0  0  0  0
    0.6414   -2.1443   -0.1230 C   0  0  0  0  0  0
    0.5598   -3.1843    0.8131 C   0  0  0  0  0  0
    0.9140   -2.9645    2.1383 C   0  0  0  0  0  0
    1.3421   -1.7025    2.4932 C   0  0  0  0  0  0
    1.4500   -0.6778    1.6243 N   0  0  0  0  0  0
    1.1169   -0.8967    0.3169 C   0  0  0  0  0  0
    1.2548    0.2917   -0.6510 C   0  0  2  0  0  0
   -0.7991    1.4764    0.1682 C   0  0  1  0  0  0
   -0.4979    2.9460    0.4873 C   0  0  0  0  0  0
   -2.3036    1.3546   -0.1838 C   0  0  0  0  0  0
   -2.7444   -0.0635   -0.4191 C   0  0  0  0  0  0
   -3.0007   -0.9874    0.7420 C   0  0  0  0  0  0
   -4.1516   -0.4869   -0.0861 C   0  0  0  0  0  0
    2.3351    1.2595   -0.2190 C   0  0  0  0  0  0
    3.7585    1.0777   -0.6971 C   0  0  0  0  0  0
    2.9452    2.2375   -1.1977 C   0  0  0  0  0  0
   -0.3344   -3.3257   -1.6412 H   0  0  0  0  0  0
    1.1804   -2.5549   -2.1518 H   0  0  0  0  0  0
   -0.3185   -1.6074   -1.9802 H   0  0  0  0  0  0
    0.2168   -4.1716    0.5135 H   0  0  0  0  0  0
    0.8557   -3.7582    2.8747 H   0  0  0  0  0  0
    1.6232   -1.4735    3.5160 H   0  0  0  0  0  0
    1.5993   -0.1300   -1.6044 H   0  0  0  0  0  0
   -0.6258    0.8795    1.0691 H   0  0  0  0  0  0
   -1.1539    3.3067    1.2871 H   0  0  0  0  0  0
    0.5316    3.0906    0.8240 H   0  0  0  0  0  0
   -0.6639    3.5862   -0.3863 H   0  0  0  0  0  0
   -2.8952    1.7922    0.6306 H   0  0  0  0  0  0
   -2.5314    1.9441   -1.0815 H   0  0  0  0  0  0
   -2.3049   -0.4818   -1.3173 H   0  0  0  0  0  0
   -2.8807   -0.5962    1.7456 H   0  0  0  0  0  0
   -2.7017   -2.0237    0.6335 H   0  0  0  0  0  0
   -4.6398   -1.1893   -0.7523 H   0  0  0  0  0  0
   -4.8213    0.2378    0.3617 H   0  0  0  0  0  0
    2.2087    1.5931    0.8057 H   0  0  0  0  0  0
    3.9775    0.2702   -1.3865 H   0  0  0  0  0  0
    4.5528    1.2753    0.0138 H   0  0  0  0  0  0
    3.1943    3.2271   -0.8305 H   0  0  0  0  0  0
    2.6213    2.2187   -2.2308 H   0  0  0  0  0  0
   -0.0159    1.0085   -1.0199 N   0  3  0  0  0  0
    0.2254    1.8254   -1.5932 H   0  0  0  0  0  0
   -0.6042    0.3685   -1.5664 H   0  0  0  0  0  0
  1  2  1  0  0  0
  1 18  1  0  0  0
  1 19  1  0  0  0
  1 20  1  0  0  0
  2  3  2  0  0  0
  2  7  1  0  0  0
  3  4  1  0  0  0
  3 21  1  0  0  0
  4  5  2  0  0  0
  4 22  1  0  0  0
  5  6  1  0  0  0
  5 23  1  0  0  0
  6  7  2  0  0  0
  7  8  1  0  0  0
  8 15  1  0  0  0
  8 24  1  0  0  0
  8 41  1  0  0  0
  9 10  1  0  0  0
  9 11  1  0  0  0
  9 25  1  0  0  0
  9 41  1  0  0  0
 10 26  1  0  0  0
 10 27  1  0  0  0
 10 28  1  0  0  0
 11 12  1  0  0  0
 11 29  1  0  0  0
 11 30  1  0  0  0
 12 13  1  0  0  0
 12 14  1  0  0  0
 12 31  1  0  0  0
 13 14  1  0  0  0
 13 32  1  0  0  0
 13 33  1  0  0  0
 14 34  1  0  0  0
 14 35  1  0  0  0
 15 16  1  0  0  0
 15 17  1  0  0  0
 15 36  1  0  0  0
 16 17  1  0  0  0
 16 37  1  0  0  0
 16 38  1  0  0  0
 17 39  1  0  0  0
 17 40  1  0  0  0
 41 42  1  0  0  0
 41 43  1  0  0  0
M  CHG  1  41   1
M  END
> <energy>
94.0653

> <chiral flag>
0

> <version>
0

> <i_ionizer_Ion_state_n>
2

> <i_ionizer_Tot_Q>
1

> <s_ionizer_Ion_centers>
41

> <s_ionizer_Ion_types>
N5

> <s_ionizer_Ion_ctrs_in>
9

> <r_ionizer_Ionization_penalty>
0.0075612

> <r_ionizer_Ionization_penalty_charging>
0.000148807

> <r_ionizer_Ionization_penalty_neutral>
0.00741239

$$$$
ZINC001258450721
                    3D
 Structure written by MMmdl.
 43 45  0  0  1  0            999 V2000
    2.9416   -0.4973   -1.6107 C   0  0  0  0  0  0
    2.7651   -0.9899   -0.2039 C   0  0  0  0  0  0
    3.5353   -2.1011    0.1803 C   0  0  0  0  0  0
    3.4145   -2.6442    1.4514 C   0  0  0  0  0  0
    2.5105   -2.0636    2.3133 C   0  0  0  0  0  0
    1.7347   -1.0126    1.9828 N   0  0  0  0  0  0
    1.8443   -0.4772    0.7290 C   0  0  0  0  0  0
    0.8627    0.6743    0.4657 C   0  0  1  0  0  0
   -1.0929   -0.3622   -0.5858 C   0  0  2  0  0  0
   -1.3362   -1.0914   -1.9135 C   0  0  0  0  0  0
   -2.3267    0.4623   -0.1592 C   0  0  0  0  0  0
   -3.5199   -0.3883    0.1754 C   0  0  0  0  0  0
   -4.8725    0.2655    0.2931 C   0  0  0  0  0  0
   -4.5899   -0.6689   -0.8493 C   0  0  0  0  0  0
    1.5646    2.0171    0.4494 C   0  0  0  0  0  0
    0.7528    3.2938    0.5276 C   0  0  0  0  0  0
    1.6028    2.8813    1.6929 C   0  0  0  0  0  0
    2.2701   -1.0408   -2.2829 H   0  0  0  0  0  0
    3.9705   -0.6610   -1.9508 H   0  0  0  0  0  0
    2.7622    0.5734   -1.7118 H   0  0  0  0  0  0
    4.2352   -2.5537   -0.5202 H   0  0  0  0  0  0
    4.0055   -3.4994    1.7534 H   0  0  0  0  0  0
    2.3753   -2.4473    3.3196 H   0  0  0  0  0  0
    0.1745    0.6986    1.3218 H   0  0  0  0  0  0
   -0.8736   -1.1304    0.1653 H   0  0  0  0  0  0
   -1.6197   -0.3954   -2.7102 H   0  0  0  0  0  0
   -2.1338   -1.8354   -1.8120 H   0  0  0  0  0  0
   -0.4371   -1.6316   -2.2333 H   0  0  0  0  0  0
   -2.0834    1.0473    0.7372 H   0  0  0  0  0  0
   -2.5818    1.1872   -0.9443 H   0  0  0  0  0  0
   -3.2864   -1.1611    0.8989 H   0  0  0  0  0  0
   -5.5303   -0.0729    1.0854 H   0  0  0  0  0  0
   -4.9612    1.3221    0.0665 H   0  0  0  0  0  0
   -4.4886   -0.2379   -1.8386 H   0  0  0  0  0  0
   -5.0583   -1.6464   -0.8371 H   0  0  0  0  0  0
    2.4376    2.0415   -0.1891 H   0  0  0  0  0  0
    1.0779    4.1361   -0.0721 H   0  0  0  0  0  0
   -0.3240    3.2113    0.6257 H   0  0  0  0  0  0
    2.5031    3.4521    1.8888 H   0  0  0  0  0  0
    1.1017    2.5281    2.5873 H   0  0  0  0  0  0
    0.0499    0.5650   -0.7749 N   0  3  0  0  0  0
   -0.3098    1.4941   -1.0229 H   0  0  0  0  0  0
    0.6442    0.2139   -1.5351 H   0  0  0  0  0  0
  1  2  1  0  0  0
  1 18  1  0  0  0
  1 19  1  0  0  0
  1 20  1  0  0  0
  2  3  2  0  0  0
  2  7  1  0  0  0
  3  4  1  0  0  0
  3 21  1  0  0  0
  4  5  2  0  0  0
  4 22  1  0  0  0
  5  6  1  0  0  0
  5 23  1  0  0  0
  6  7  2  0  0  0
  7  8  1  0  0  0
  8 15  1  0  0  0
  8 24  1  0  0  0
  8 41  1  0  0  0
  9 10  1  0  0  0
  9 11  1  0  0  0
  9 25  1  0  0  0
  9 41  1  0  0  0
 10 26  1  0  0  0
 10 27  1  0  0  0
 10 28  1  0  0  0
 11 12  1  0  0  0
 11 29  1  0  0  0
 11 30  1  0  0  0
 12 13  1  0  0  0
 12 14  1  0  0  0
 12 31  1  0  0  0
 13 14  1  0  0  0
 13 32  1  0  0  0
 13 33  1  0  0  0
 14 34  1  0  0  0
 14 35  1  0  0  0
 15 16  1  0  0  0
 15 17  1  0  0  0
 15 36  1  0  0  0
 16 17  1  0  0  0
 16 37  1  0  0  0
 16 38  1  0  0  0
 17 39  1  0  0  0
 17 40  1  0  0  0
 41 42  1  0  0  0
 41 43  1  0  0  0
M  CHG  1  41   1
M  END
> <energy>
94.1254

> <chiral flag>
0

> <version>
0

> <i_ionizer_Ion_state_n>
2

> <i_ionizer_Tot_Q>
1

> <s_ionizer_Ion_centers>
41

> <s_ionizer_Ion_types>
N5

> <s_ionizer_Ion_ctrs_in>
9

> <r_ionizer_Ionization_penalty>
0.0075612

> <r_ionizer_Ionization_penalty_charging>
0.000148807

> <r_ionizer_Ionization_penalty_neutral>
0.00741239

$$$$
ZINC001258450726
                    3D
 Structure written by MMmdl.
 43 45  0  0  1  0            999 V2000
    2.1657   -0.5698   -2.2656 C   0  0  0  0  0  0
    1.9986   -1.3315   -0.9851 C   0  0  0  0  0  0
    2.4648   -2.6525   -0.9152 C   0  0  0  0  0  0
    2.3401   -3.3826    0.2606 C   0  0  0  0  0  0
    1.7566   -2.7673    1.3487 C   0  0  0  0  0  0
    1.3079   -1.4962    1.3338 N   0  0  0  0  0  0
    1.4320   -0.7782    0.1728 C   0  0  0  0  0  0
    0.9323    0.6742    0.2435 C   0  0  2  0  0  0
   -1.4335    0.8793    0.9530 C   0  0  2  0  0  0
   -2.2292    1.2879    2.1997 C   0  0  0  0  0  0
   -1.9257   -0.4743    0.3919 C   0  0  0  0  0  0
   -3.3544   -0.4277   -0.0818 C   0  0  0  0  0  0
   -3.7171    0.2760   -1.3643 C   0  0  0  0  0  0
   -3.7735   -1.2245   -1.2910 C   0  0  0  0  0  0
    2.0960    1.5924    0.5588 C   0  0  0  0  0  0
    1.9085    3.0959    0.5511 C   0  0  0  0  0  0
    2.7426    2.4445   -0.5104 C   0  0  0  0  0  0
    1.2570   -0.0184   -2.5221 H   0  0  0  0  0  0
    3.0100    0.1205   -2.1899 H   0  0  0  0  0  0
    2.3630   -1.2462   -3.1051 H   0  0  0  0  0  0
    2.9288   -3.1216   -1.7799 H   0  0  0  0  0  0
    2.6948   -4.4049    0.3274 H   0  0  0  0  0  0
    1.6329   -3.2917    2.2914 H   0  0  0  0  0  0
    0.4699    0.9654   -0.7061 H   0  0  0  0  0  0
   -1.5831    1.6658    0.2014 H   0  0  0  0  0  0
   -2.1869    0.5158    2.9758 H   0  0  0  0  0  0
   -3.2811    1.4674    1.9554 H   0  0  0  0  0  0
   -1.8380    2.2179    2.6294 H   0  0  0  0  0  0
   -1.8334   -1.2571    1.1555 H   0  0  0  0  0  0
   -1.2924   -0.7771   -0.4490 H   0  0  0  0  0  0
   -4.0597   -0.3861    0.7419 H   0  0  0  0  0  0
   -2.9270    0.7265   -1.9538 H   0  0  0  0  0  0
   -4.6560    0.8179   -1.3977 H   0  0  0  0  0  0
   -4.7498   -1.6952   -1.2739 H   0  0  0  0  0  0
   -3.0236   -1.7873   -1.8341 H   0  0  0  0  0  0
    2.7259    1.1992    1.3516 H   0  0  0  0  0  0
    2.4092    3.6648    1.3261 H   0  0  0  0  0  0
    0.9366    3.4899    0.2757 H   0  0  0  0  0  0
    3.8172    2.5783   -0.4649 H   0  0  0  0  0  0
    2.3393    2.4310   -1.5157 H   0  0  0  0  0  0
   -0.0093    0.8807    1.3879 N   0  3  0  0  0  0
    0.1287    0.1257    2.0699 H   0  0  0  0  0  0
    0.2004    1.7835    1.8298 H   0  0  0  0  0  0
  1  2  1  0  0  0
  1 18  1  0  0  0
  1 19  1  0  0  0
  1 20  1  0  0  0
  2  3  2  0  0  0
  2  7  1  0  0  0
  3  4  1  0  0  0
  3 21  1  0  0  0
  4  5  2  0  0  0
  4 22  1  0  0  0
  5  6  1  0  0  0
  5 23  1  0  0  0
  6  7  2  0  0  0
  7  8  1  0  0  0
  8 15  1  0  0  0
  8 24  1  0  0  0
  8 41  1  0  0  0
  9 10  1  0  0  0
  9 11  1  0  0  0
  9 25  1  0  0  0
  9 41  1  0  0  0
 10 26  1  0  0  0
 10 27  1  0  0  0
 10 28  1  0  0  0
 11 12  1  0  0  0
 11 29  1  0  0  0
 11 30  1  0  0  0
 12 13  1  0  0  0
 12 14  1  0  0  0
 12 31  1  0  0  0
 13 14  1  0  0  0
 13 32  1  0  0  0
 13 33  1  0  0  0
 14 34  1  0  0  0
 14 35  1  0  0  0
 15 16  1  0  0  0
 15 17  1  0  0  0
 15 36  1  0  0  0
 16 17  1  0  0  0
 16 37  1  0  0  0
 16 38  1  0  0  0
 17 39  1  0  0  0
 17 40  1  0  0  0
 41 42  1  0  0  0
 41 43  1  0  0  0
M  CHG  1  41   1
M  END
> <energy>
88.0643

> <chiral flag>
0

> <version>
0

> <i_ionizer_Ion_state_n>
2

> <i_ionizer_Tot_Q>
1

> <s_ionizer_Ion_centers>
41

> <s_ionizer_Ion_types>
N5

> <s_ionizer_Ion_ctrs_in>
9

> <r_ionizer_Ionization_penalty>
0.0075612

> <r_ionizer_Ionization_penalty_charging>
0.000148807

> <r_ionizer_Ionization_penalty_neutral>
0.00741239

$$$$
ZINC001258450742
                    3D
 Structure written by MMmdl.
 41 42  0  0  1  0            999 V2000
   -3.8737    0.1687    0.9644 C   0  0  0  0  0  0
   -2.5950   -0.3797    0.3301 C   0  0  2  0  0  0
   -2.0325   -1.5272    1.1978 C   0  0  0  0  0  0
   -0.8408   -2.1971    0.5655 C   0  0  0  0  0  0
   -0.5413   -3.6497    0.8340 C   0  0  0  0  0  0
   -1.0315   -3.2218   -0.5212 C   0  0  0  0  0  0
   -1.8161    1.5274   -0.9925 C   0  0  0  0  0  0
   -0.5040    2.0433   -1.5970 C   0  0  0  0  0  0
    0.3015    3.3856   -0.6550 S   0  0  0  0  0  0
    1.2909    2.4433    0.5448 C   0  0  0  0  0  0
    2.4331    1.5890    0.0416 C   0  0  0  0  0  0
    3.0567    0.7278    0.9650 C   0  0  0  0  0  0
    4.1377   -0.0782    0.5940 C   0  0  0  0  0  0
    4.6128   -0.0370   -0.7113 C   0  0  0  0  0  0
    4.0206    0.8172   -1.6350 C   0  0  0  0  0  0
    2.9531    1.6391   -1.2577 C   0  0  0  0  0  0
   -3.7022    0.4909    1.9961 H   0  0  0  0  0  0
   -4.6541   -0.5992    0.9810 H   0  0  0  0  0  0
   -4.2670    1.0264    0.4098 H   0  0  0  0  0  0
   -2.8369   -0.8007   -0.6552 H   0  0  0  0  0  0
   -2.8259   -2.2670    1.3585 H   0  0  0  0  0  0
   -1.7459   -1.1496    2.1874 H   0  0  0  0  0  0
    0.0091   -1.5258    0.4843 H   0  0  0  0  0  0
    0.4989   -3.9475    0.9227 H   0  0  0  0  0  0
   -1.2178   -4.2077    1.4723 H   0  0  0  0  0  0
   -2.0403   -3.4922   -0.8105 H   0  0  0  0  0  0
   -0.3245   -3.2201   -1.3441 H   0  0  0  0  0  0
   -2.4858    2.3598   -0.7432 H   0  0  0  0  0  0
   -2.3141    0.9572   -1.7874 H   0  0  0  0  0  0
    0.1868    1.2186   -1.7919 H   0  0  0  0  0  0
   -0.7365    2.4768   -2.5765 H   0  0  0  0  0  0
    1.7275    3.1920    1.2177 H   0  0  0  0  0  0
    0.6186    1.8390    1.1610 H   0  0  0  0  0  0
    2.7062    0.6856    1.9944 H   0  0  0  0  0  0
    4.6078   -0.7297    1.3261 H   0  0  0  0  0  0
    5.4482   -0.6673   -1.0060 H   0  0  0  0  0  0
    4.3961    0.8571   -2.6531 H   0  0  0  0  0  0
    2.5352    2.3067   -2.0066 H   0  0  0  0  0  0
   -1.5672    0.6831    0.1960 N   0  3  0  0  0  0
   -1.5862    1.2741    1.0355 H   0  0  0  0  0  0
   -0.6430    0.2448    0.1068 H   0  0  0  0  0  0
  1  2  1  0  0  0
  1 17  1  0  0  0
  1 18  1  0  0  0
  1 19  1  0  0  0
  2  3  1  0  0  0
  2 20  1  0  0  0
  2 39  1  0  0  0
  3  4  1  0  0  0
  3 21  1  0  0  0
  3 22  1  0  0  0
  4  5  1  0  0  0
  4  6  1  0  0  0
  4 23  1  0  0  0
  5  6  1  0  0  0
  5 24  1  0  0  0
  5 25  1  0  0  0
  6 26  1  0  0  0
  6 27  1  0  0  0
  7  8  1  0  0  0
  7 28  1  0  0  0
  7 29  1  0  0  0
  7 39  1  0  0  0
  8  9  1  0  0  0
  8 30  1  0  0  0
  8 31  1  0  0  0
  9 10  1  0  0  0
 10 11  1  0  0  0
 10 32  1  0  0  0
 10 33  1  0  0  0
 11 12  2  0  0  0
 11 16  1  0  0  0
 12 13  1  0  0  0
 12 34  1  0  0  0
 13 14  2  0  0  0
 13 35  1  0  0  0
 14 15  1  0  0  0
 14 36  1  0  0  0
 15 16  2  0  0  0
 15 37  1  0  0  0
 16 38  1  0  0  0
 39 40  1  0  0  0
 39 41  1  0  0  0
M  CHG  1  39   1
M  END
> <energy>
72.6239

> <chiral flag>
0

> <version>
0

> <i_ionizer_Ion_state_n>
1

> <i_ionizer_Tot_Q>
1

> <s_ionizer_Ion_centers>
39

> <s_ionizer_Ion_types>
N5

> <s_ionizer_Ion_ctrs_in>
7

> <r_ionizer_Ionization_penalty>
0.000148807

> <r_ionizer_Ionization_penalty_charging>
0.000148807

> <r_ionizer_Ionization_penalty_neutral>
0

$$$$
ZINC001258450743
                    3D
 Structure written by MMmdl.
 41 42  0  0  1  0            999 V2000
   -1.7922   -1.5944    2.2778 C   0  0  0  0  0  0
   -1.8042   -0.6494    1.0724 C   0  0  1  0  0  0
   -2.8842   -1.1004    0.0660 C   0  0  0  0  0  0
   -2.8440   -0.3165   -1.2177 C   0  0  0  0  0  0
   -1.8599   -0.6660   -2.3059 C   0  0  0  0  0  0
   -3.3241   -0.9459   -2.5004 C   0  0  0  0  0  0
   -0.8185    1.4786    1.7754 C   0  0  0  0  0  0
   -0.2373    2.0370    0.4702 C   0  0  0  0  0  0
    1.3470    2.8870    0.7779 S   0  0  0  0  0  0
    2.2780    2.3319   -0.6857 C   0  0  0  0  0  0
    2.9341    0.9907   -0.4788 C   0  0  0  0  0  0
    2.3560   -0.1821   -0.9879 C   0  0  0  0  0  0
    2.9661   -1.4205   -0.7812 C   0  0  0  0  0  0
    4.1627   -1.5026   -0.0712 C   0  0  0  0  0  0
    4.7485   -0.3438    0.4371 C   0  0  0  0  0  0
    4.1381    0.8949    0.2364 C   0  0  0  0  0  0
   -2.7713   -1.6305    2.7685 H   0  0  0  0  0  0
   -1.0522   -1.2856    3.0234 H   0  0  0  0  0  0
   -1.5430   -2.6144    1.9677 H   0  0  0  0  0  0
   -0.8302   -0.7180    0.5725 H   0  0  0  0  0  0
   -2.7424   -2.1674   -0.1510 H   0  0  0  0  0  0
   -3.8830   -1.0062    0.5090 H   0  0  0  0  0  0
   -3.0824    0.7316   -1.0624 H   0  0  0  0  0  0
   -1.1983   -1.5119   -2.1616 H   0  0  0  0  0  0
   -1.4196    0.1517   -2.8651 H   0  0  0  0  0  0
   -3.6502   -1.9797   -2.4854 H   0  0  0  0  0  0
   -3.8759   -0.3215   -3.1940 H   0  0  0  0  0  0
   -1.0588    2.3149    2.4435 H   0  0  0  0  0  0
   -0.0914    0.8514    2.3066 H   0  0  0  0  0  0
   -0.0957    1.2340   -0.2559 H   0  0  0  0  0  0
   -0.9298    2.7592    0.0269 H   0  0  0  0  0  0
    3.0552    3.0786   -0.8886 H   0  0  0  0  0  0
    1.6303    2.3265   -1.5699 H   0  0  0  0  0  0
    1.4220   -0.1412   -1.5455 H   0  0  0  0  0  0
    2.5052   -2.3242   -1.1721 H   0  0  0  0  0  0
    4.6365   -2.4674    0.0899 H   0  0  0  0  0  0
    5.6781   -0.4058    0.9958 H   0  0  0  0  0  0
    4.6032    1.7885    0.6490 H   0  0  0  0  0  0
   -2.0808    0.7396    1.5283 N   0  3  0  0  0  0
   -2.6206    1.2293    0.8051 H   0  0  0  0  0  0
   -2.6258    0.7056    2.3978 H   0  0  0  0  0  0
  1  2  1  0  0  0
  1 17  1  0  0  0
  1 18  1  0  0  0
  1 19  1  0  0  0
  2  3  1  0  0  0
  2 20  1  0  0  0
  2 39  1  0  0  0
  3  4  1  0  0  0
  3 21  1  0  0  0
  3 22  1  0  0  0
  4  5  1  0  0  0
  4  6  1  0  0  0
  4 23  1  0  0  0
  5  6  1  0  0  0
  5 24  1  0  0  0
  5 25  1  0  0  0
  6 26  1  0  0  0
  6 27  1  0  0  0
  7  8  1  0  0  0
  7 28  1  0  0  0
  7 29  1  0  0  0
  7 39  1  0  0  0
  8  9  1  0  0  0
  8 30  1  0  0  0
  8 31  1  0  0  0
  9 10  1  0  0  0
 10 11  1  0  0  0
 10 32  1  0  0  0
 10 33  1  0  0  0
 11 12  2  0  0  0
 11 16  1  0  0  0
 12 13  1  0  0  0
 12 34  1  0  0  0
 13 14  2  0  0  0
 13 35  1  0  0  0
 14 15  1  0  0  0
 14 36  1  0  0  0
 15 16  2  0  0  0
 15 37  1  0  0  0
 16 38  1  0  0  0
 39 40  1  0  0  0
 39 41  1  0  0  0
M  CHG  1  39   1
M  END
> <energy>
69.4877

> <chiral flag>
0

> <version>
0

> <i_ionizer_Ion_state_n>
1

> <i_ionizer_Tot_Q>
1

> <s_ionizer_Ion_centers>
39

> <s_ionizer_Ion_types>
N5

> <s_ionizer_Ion_ctrs_in>
7

> <r_ionizer_Ionization_penalty>
0.000148807

> <r_ionizer_Ionization_penalty_charging>
0.000148807

> <r_ionizer_Ionization_penalty_neutral>
0

$$$$
ZINC001258450929
                    3D
 Structure written by MMmdl.
 43 44  0  0  1  0            999 V2000
   -1.9018    2.8182   -0.0588 C   0  0  0  0  0  0
   -1.7752    1.6084   -0.9825 C   0  0  2  0  0  0
   -3.0249    0.7089   -0.8698 C   0  0  0  0  0  0
   -2.9722   -0.4713   -1.8046 C   0  0  0  0  0  0
   -2.6282   -1.8464   -1.2894 C   0  0  0  0  0  0
   -4.0346   -1.5375   -1.7230 C   0  0  0  0  0  0
   -0.5863    0.8574   -0.6119 N   0  0  0  0  0  0
    0.6912    1.0362   -1.0757 C   0  0  0  0  0  0
    1.8323    0.3011   -0.3497 C   0  0  0  0  0  0
    1.5688   -1.2147   -0.3067 C   0  0  0  0  0  0
    1.3583   -1.8522    1.0636 C   0  0  0  0  0  0
    2.6389   -1.9519    1.8887 C   0  0  0  0  0  0
    3.0016   -0.6774    2.6374 C   0  0  0  0  0  0
    3.3083    0.5163    1.7442 C   0  0  0  0  0  0
    2.0942    1.0293    0.9760 C   0  0  0  0  0  0
   -1.9161    2.5188    0.9956 H   0  0  0  0  0  0
   -2.8204    3.3762   -0.2680 H   0  0  0  0  0  0
   -1.0535    3.4975   -0.1939 H   0  0  0  0  0  0
   -1.7109    1.9579   -2.0195 H   0  0  0  0  0  0
   -3.1553    0.3639    0.1637 H   0  0  0  0  0  0
   -3.9142    1.3018   -1.1220 H   0  0  0  0  0  0
   -2.6293   -0.2018   -2.7981 H   0  0  0  0  0  0
   -2.0274   -2.4890   -1.9245 H   0  0  0  0  0  0
   -2.4452   -1.9824   -0.2303 H   0  0  0  0  0  0
   -4.3878   -1.9741   -2.6516 H   0  0  0  0  0  0
   -4.7976   -1.4537   -0.9576 H   0  0  0  0  0  0
   -0.6895    0.2952    0.2265 H   0  0  0  0  0  0
    0.3232    2.2945   -2.5974 H   0  0  0  0  0  0
    2.7264    0.4405   -0.9763 H   0  0  0  0  0  0
    2.4110   -1.7194   -0.7997 H   0  0  0  0  0  0
    0.6983   -1.4644   -0.9284 H   0  0  0  0  0  0
    0.9991   -2.8757    0.8896 H   0  0  0  0  0  0
    0.5638   -1.3420    1.6192 H   0  0  0  0  0  0
    2.5036   -2.7448    2.6347 H   0  0  0  0  0  0
    3.4782   -2.2649    1.2549 H   0  0  0  0  0  0
    3.8875   -0.8793    3.2518 H   0  0  0  0  0  0
    2.1960   -0.4181    3.3352 H   0  0  0  0  0  0
    3.6622    1.3270    2.3938 H   0  0  0  0  0  0
    4.1326    0.2848    1.0604 H   0  0  0  0  0  0
    2.2783    2.0873    0.7393 H   0  0  0  0  0  0
    1.2046    1.0305    1.6176 H   0  0  0  0  0  0
    1.0367    1.7853   -2.0672 N   0  3  0  0  0  0
    2.0268    1.8712   -2.3251 H   0  0  0  0  0  0
  1  2  1  0  0  0
  1 16  1  0  0  0
  1 17  1  0  0  0
  1 18  1  0  0  0
  2  3  1  0  0  0
  2  7  1  0  0  0
  2 19  1  0  0  0
  3  4  1  0  0  0
  3 20  1  0  0  0
  3 21  1  0  0  0
  4  5  1  0  0  0
  4  6  1  0  0  0
  4 22  1  0  0  0
  5  6  1  0  0  0
  5 23  1  0  0  0
  5 24  1  0  0  0
  6 25  1  0  0  0
  6 26  1  0  0  0
  7  8  1  0  0  0
  7 27  1  0  0  0
  8  9  1  0  0  0
  8 42  2  0  0  0
  9 10  1  0  0  0
  9 15  1  0  0  0
  9 29  1  0  0  0
 10 11  1  0  0  0
 10 30  1  0  0  0
 10 31  1  0  0  0
 11 12  1  0  0  0
 11 32  1  0  0  0
 11 33  1  0  0  0
 12 13  1  0  0  0
 12 34  1  0  0  0
 12 35  1  0  0  0
 13 14  1  0  0  0
 13 36  1  0  0  0
 13 37  1  0  0  0
 14 15  1  0  0  0
 14 38  1  0  0  0
 14 39  1  0  0  0
 15 40  1  0  0  0
 15 41  1  0  0  0
 28 42  1  0  0  0
 42 43  1  0  0  0
M  CHG  1  42   1
M  END
> <energy>
4.9333

> <chiral flag>
0

> <version>
0

> <i_ionizer_Ion_state_n>
1

> <i_ionizer_Tot_Q>
1

> <s_ionizer_Ion_centers>
42

> <s_ionizer_Ion_types>
N4

> <s_ionizer_Ion_ctrs_in>
9

> <r_ionizer_Ionization_penalty>
1.48824e-05

> <r_ionizer_Ionization_penalty_charging>
1.48824e-05

> <r_ionizer_Ionization_penalty_neutral>
0

$$$$
ZINC001258450932
                    3D
 Structure written by MMmdl.
 43 44  0  0  1  0            999 V2000
   -1.5567    2.3567   -0.9736 C   0  0  0  0  0  0
   -2.1765    1.3569    0.0064 C   0  0  1  0  0  0
   -3.3374    0.6156   -0.6968 C   0  0  0  0  0  0
   -4.0843   -0.3239    0.2137 C   0  0  0  0  0  0
   -4.9504   -1.4016   -0.3901 C   0  0  0  0  0  0
   -3.6785   -1.7738    0.3191 C   0  0  0  0  0  0
   -1.1761    0.3662    0.4487 N   0  0  0  0  0  0
    0.0336    0.7780    0.9467 C   0  0  0  0  0  0
    1.2863    0.1237    0.3575 C   0  0  0  0  0  0
    1.9969   -0.6982    1.4409 C   0  0  0  0  0  0
    2.7962   -1.8969    0.9303 C   0  0  0  0  0  0
    3.4690   -1.7549   -0.4332 C   0  0  0  0  0  0
    4.1599   -0.4151   -0.6722 C   0  0  0  0  0  0
    3.2209    0.6457   -1.2450 C   0  0  0  0  0  0
    2.2006    1.1956   -0.2503 C   0  0  0  0  0  0
   -2.3166    3.0304   -1.3813 H   0  0  0  0  0  0
   -0.8048    2.9791   -0.4818 H   0  0  0  0  0  0
   -1.0710    1.8419   -1.8105 H   0  0  0  0  0  0
   -2.5653    1.8947    0.8810 H   0  0  0  0  0  0
   -4.0591    1.3500   -1.0782 H   0  0  0  0  0  0
   -2.9520    0.0683   -1.5697 H   0  0  0  0  0  0
   -4.4589    0.1711    1.1032 H   0  0  0  0  0  0
   -5.8908   -1.6296    0.0962 H   0  0  0  0  0  0
   -4.9743   -1.5093   -1.4698 H   0  0  0  0  0  0
   -3.7552   -2.2507    1.2896 H   0  0  0  0  0  0
   -2.8473   -2.1225   -0.2842 H   0  0  0  0  0  0
   -1.6388   -0.1593    1.1927 H   0  0  0  0  0  0
    1.0040    1.9328    2.2857 H   0  0  0  0  0  0
    0.9346   -0.5444   -0.4397 H   0  0  0  0  0  0
    1.2676   -1.0773    2.1682 H   0  0  0  0  0  0
    2.6660   -0.0477    2.0176 H   0  0  0  0  0  0
    3.5617   -2.1411    1.6783 H   0  0  0  0  0  0
    2.1385   -2.7740    0.8899 H   0  0  0  0  0  0
    4.2163   -2.5553   -0.5210 H   0  0  0  0  0  0
    2.7373   -1.9505   -1.2286 H   0  0  0  0  0  0
    4.9591   -0.5744   -1.4058 H   0  0  0  0  0  0
    4.6396   -0.0528    0.2436 H   0  0  0  0  0  0
    3.8240    1.4857   -1.6134 H   0  0  0  0  0  0
    2.6942    0.2415   -2.1197 H   0  0  0  0  0  0
    2.7295    1.7408    0.5431 H   0  0  0  0  0  0
    1.5930    1.9490   -0.7706 H   0  0  0  0  0  0
    0.0924    1.6467    1.9066 N   0  3  0  0  0  0
   -0.7716    2.0491    2.2884 H   0  0  0  0  0  0
  1  2  1  0  0  0
  1 16  1  0  0  0
  1 17  1  0  0  0
  1 18  1  0  0  0
  2  3  1  0  0  0
  2  7  1  0  0  0
  2 19  1  0  0  0
  3  4  1  0  0  0
  3 20  1  0  0  0
  3 21  1  0  0  0
  4  5  1  0  0  0
  4  6  1  0  0  0
  4 22  1  0  0  0
  5  6  1  0  0  0
  5 23  1  0  0  0
  5 24  1  0  0  0
  6 25  1  0  0  0
  6 26  1  0  0  0
  7  8  1  0  0  0
  7 27  1  0  0  0
  8  9  1  0  0  0
  8 42  2  0  0  0
  9 10  1  0  0  0
  9 15  1  0  0  0
  9 29  1  0  0  0
 10 11  1  0  0  0
 10 30  1  0  0  0
 10 31  1  0  0  0
 11 12  1  0  0  0
 11 32  1  0  0  0
 11 33  1  0  0  0
 12 13  1  0  0  0
 12 34  1  0  0  0
 12 35  1  0  0  0
 13 14  1  0  0  0
 13 36  1  0  0  0
 13 37  1  0  0  0
 14 15  1  0  0  0
 14 38  1  0  0  0
 14 39  1  0  0  0
 15 40  1  0  0  0
 15 41  1  0  0  0
 28 42  1  0  0  0
 42 43  1  0  0  0
M  CHG  1  42   1
M  END
> <energy>
11.5756

> <chiral flag>
0

> <version>
0

> <i_ionizer_Ion_state_n>
1

> <i_ionizer_Tot_Q>
1

> <s_ionizer_Ion_centers>
42

> <s_ionizer_Ion_types>
N4

> <s_ionizer_Ion_ctrs_in>
9

> <r_ionizer_Ionization_penalty>
1.48824e-05

> <r_ionizer_Ionization_penalty_charging>
1.48824e-05

> <r_ionizer_Ionization_penalty_neutral>
0

$$$$
ZINC001258451019
                    3D
 Structure written by MMmdl.
 40 41  0  0  1  0            999 V2000
   -1.5861   -1.4289   -1.8091 C   0  0  0  0  0  0
   -1.1372   -0.6170   -0.5789 C   0  0  2  0  0  0
   -2.1022   -0.8970    0.5987 C   0  0  0  0  0  0
   -1.8082   -2.2113    1.2835 C   0  0  0  0  0  0
   -0.5912   -2.3597    2.1620 C   0  0  0  0  0  0
   -1.9586   -2.3434    2.7818 C   0  0  0  0  0  0
   -0.0798    1.6728   -0.3506 C   0  0  0  0  0  0
   -0.4680    1.9554    1.1162 C   0  0  0  0  0  0
   -0.1613    3.0422   -1.0802 C   0  0  0  0  0  0
    1.3425    1.1084   -0.5333 C   0  0  0  0  0  0
    2.1979    0.8580    0.5583 C   0  0  0  0  0  0
    3.4587    0.2787    0.3837 C   0  0  0  0  0  0
    3.8976   -0.0560   -0.8904 C   0  0  0  0  0  0
    3.0818    0.2120   -1.9821 C   0  0  0  0  0  0
    3.5078   -0.0960   -3.2123 F   0  0  0  0  0  0
    1.8267    0.7909   -1.8163 C   0  0  0  0  0  0
   -0.8925   -1.2899   -2.6458 H   0  0  0  0  0  0
   -2.5850   -1.1293   -2.1498 H   0  0  0  0  0  0
   -1.6128   -2.5014   -1.5913 H   0  0  0  0  0  0
   -0.1344   -0.9735   -0.3270 H   0  0  0  0  0  0
   -3.1402   -0.9091    0.2450 H   0  0  0  0  0  0
   -2.0617   -0.1017    1.3460 H   0  0  0  0  0  0
   -2.1030   -3.0647    0.6826 H   0  0  0  0  0  0
   -0.0600   -3.3051    2.1436 H   0  0  0  0  0  0
    0.0473   -1.4966    2.3153 H   0  0  0  0  0  0
   -2.3389   -3.2774    3.1834 H   0  0  0  0  0  0
   -2.2385   -1.4751    3.3677 H   0  0  0  0  0  0
    0.1450    2.7575    1.5455 H   0  0  0  0  0  0
   -0.3424    1.0768    1.7552 H   0  0  0  0  0  0
   -1.5139    2.2784    1.1893 H   0  0  0  0  0  0
    0.5805    3.7493   -0.6852 H   0  0  0  0  0  0
    0.0222    2.9563   -2.1590 H   0  0  0  0  0  0
   -1.1520    3.4995   -0.9563 H   0  0  0  0  0  0
    1.9001    1.0966    1.5742 H   0  0  0  0  0  0
    4.0882    0.0829    1.2492 H   0  0  0  0  0  0
    4.8645   -0.5215   -1.0416 H   0  0  0  0  0  0
    1.2259    0.9632   -2.7039 H   0  0  0  0  0  0
   -1.1523    0.8268   -1.0149 N   0  3  0  0  0  0
   -1.0097    0.8606   -2.0312 H   0  0  0  0  0  0
   -2.0699    1.2259   -0.7847 H   0  0  0  0  0  0
  1  2  1  0  0  0
  1 17  1  0  0  0
  1 18  1  0  0  0
  1 19  1  0  0  0
  2  3  1  0  0  0
  2 20  1  0  0  0
  2 38  1  0  0  0
  3  4  1  0  0  0
  3 21  1  0  0  0
  3 22  1  0  0  0
  4  5  1  0  0  0
  4  6  1  0  0  0
  4 23  1  0  0  0
  5  6  1  0  0  0
  5 24  1  0  0  0
  5 25  1  0  0  0
  6 26  1  0  0  0
  6 27  1  0  0  0
  7  8  1  0  0  0
  7  9  1  0  0  0
  7 10  1  0  0  0
  7 38  1  0  0  0
  8 28  1  0  0  0
  8 29  1  0  0  0
  8 30  1  0  0  0
  9 31  1  0  0  0
  9 32  1  0  0  0
  9 33  1  0  0  0
 10 11  2  0  0  0
 10 16  1  0  0  0
 11 12  1  0  0  0
 11 34  1  0  0  0
 12 13  2  0  0  0
 12 35  1  0  0  0
 13 14  1  0  0  0
 13 36  1  0  0  0
 14 15  1  0  0  0
 14 16  2  0  0  0
 16 37  1  0  0  0
 38 39  1  0  0  0
 38 40  1  0  0  0
M  CHG  1  38   1
M  END
> <energy>
51.9977

> <chiral flag>
0

> <version>
0

> <i_ionizer_Ion_state_n>
1

> <i_ionizer_Tot_Q>
1

> <s_ionizer_Ion_centers>
38

> <s_ionizer_Ion_types>
N5

> <s_ionizer_Ion_ctrs_in>
7

> <r_ionizer_Ionization_penalty>
0.000148807

> <r_ionizer_Ionization_penalty_charging>
0.000148807

> <r_ionizer_Ionization_penalty_neutral>
0

$$$$
ZINC001258451024
                    3D
 Structure written by MMmdl.
 40 41  0  0  1  0            999 V2000
   -1.6881   -1.4091    2.1964 C   0  0  0  0  0  0
   -1.5409   -0.9612    0.7375 C   0  0  1  0  0  0
   -2.7788   -0.1176    0.3487 C   0  0  0  0  0  0
   -2.8449    0.1827   -1.1249 C   0  0  0  0  0  0
   -3.8265    1.2081   -1.6319 C   0  0  0  0  0  0
   -2.3525    1.5014   -1.6623 C   0  0  0  0  0  0
    0.8633   -0.7893   -0.0259 C   0  0  0  0  0  0
    1.2586   -2.1098    0.6784 C   0  0  0  0  0  0
    0.5618   -1.1503   -1.5031 C   0  0  0  0  0  0
    2.0213    0.2353    0.0863 C   0  0  0  0  0  0
    2.7260    0.4012    1.2998 C   0  0  0  0  0  0
    3.7628    1.3342    1.4282 C   0  0  0  0  0  0
    4.1114    2.1375    0.3487 C   0  0  0  0  0  0
    3.4129    2.0077   -0.8424 C   0  0  0  0  0  0
    3.7356    2.7896   -1.8815 F   0  0  0  0  0  0
    2.3798    1.0816   -0.9785 C   0  0  0  0  0  0
   -2.6043   -1.9952    2.3282 H   0  0  0  0  0  0
   -0.8527   -2.0389    2.5141 H   0  0  0  0  0  0
   -1.7422   -0.5509    2.8761 H   0  0  0  0  0  0
   -1.5299   -1.8528    0.1024 H   0  0  0  0  0  0
   -3.6872   -0.6750    0.6113 H   0  0  0  0  0  0
   -2.8053    0.8105    0.9353 H   0  0  0  0  0  0
   -2.7023   -0.7029   -1.7341 H   0  0  0  0  0  0
   -4.4355    1.7448   -0.9140 H   0  0  0  0  0  0
   -4.3230    1.0122   -2.5753 H   0  0  0  0  0  0
   -1.9580    2.2284   -0.9613 H   0  0  0  0  0  0
   -1.8489    1.4985   -2.6218 H   0  0  0  0  0  0
    0.5188   -2.9008    0.5096 H   0  0  0  0  0  0
    1.3593   -1.9970    1.7626 H   0  0  0  0  0  0
    2.2186   -2.4819    0.2994 H   0  0  0  0  0  0
    0.1392   -0.3046   -2.0571 H   0  0  0  0  0  0
    1.4720   -1.4691   -2.0253 H   0  0  0  0  0  0
   -0.1568   -1.9731   -1.5897 H   0  0  0  0  0  0
    2.4730   -0.1898    2.1768 H   0  0  0  0  0  0
    4.2913    1.4330    2.3726 H   0  0  0  0  0  0
    4.9096    2.8678    0.4297 H   0  0  0  0  0  0
    1.8663    1.0521   -1.9336 H   0  0  0  0  0  0
   -0.3254   -0.0922    0.5895 N   0  3  0  0  0  0
   -0.5724    0.7080   -0.0046 H   0  0  0  0  0  0
   -0.0547    0.2439    1.5211 H   0  0  0  0  0  0
  1  2  1  0  0  0
  1 17  1  0  0  0
  1 18  1  0  0  0
  1 19  1  0  0  0
  2  3  1  0  0  0
  2 20  1  0  0  0
  2 38  1  0  0  0
  3  4  1  0  0  0
  3 21  1  0  0  0
  3 22  1  0  0  0
  4  5  1  0  0  0
  4  6  1  0  0  0
  4 23  1  0  0  0
  5  6  1  0  0  0
  5 24  1  0  0  0
  5 25  1  0  0  0
  6 26  1  0  0  0
  6 27  1  0  0  0
  7  8  1  0  0  0
  7  9  1  0  0  0
  7 10  1  0  0  0
  7 38  1  0  0  0
  8 28  1  0  0  0
  8 29  1  0  0  0
  8 30  1  0  0  0
  9 31  1  0  0  0
  9 32  1  0  0  0
  9 33  1  0  0  0
 10 11  2  0  0  0
 10 16  1  0  0  0
 11 12  1  0  0  0
 11 34  1  0  0  0
 12 13  2  0  0  0
 12 35  1  0  0  0
 13 14  1  0  0  0
 13 36  1  0  0  0
 14 15  1  0  0  0
 14 16  2  0  0  0
 16 37  1  0  0  0
 38 39  1  0  0  0
 38 40  1  0  0  0
M  CHG  1  38   1
M  END
> <energy>
54.1243

> <chiral flag>
0

> <version>
0

> <i_ionizer_Ion_state_n>
1

> <i_ionizer_Tot_Q>
1

> <s_ionizer_Ion_centers>
38

> <s_ionizer_Ion_types>
N5

> <s_ionizer_Ion_ctrs_in>
7

> <r_ionizer_Ionization_penalty>
0.000148807

> <r_ionizer_Ionization_penalty_charging>
0.000148807

> <r_ionizer_Ionization_penalty_neutral>
0

$$$$
ZINC001258451118
                    3D
 Structure written by MMmdl.
 43 44  0  0  1  0            999 V2000
    1.8510    3.0603   -0.3316 C   0  0  0  0  0  0
    2.3350    1.6982   -0.8300 C   0  0  0  0  0  0
    1.5306    0.4468   -0.3170 C   0  0  0  0  0  0
   -0.9573   -0.1996   -0.4990 C   0  0  2  0  0  0
   -1.2331   -1.1230   -1.6913 C   0  0  0  0  0  0
   -2.1690    0.7221   -0.2037 C   0  0  0  0  0  0
   -3.4859    0.0062   -0.0993 C   0  0  0  0  0  0
   -4.6120    0.6613    0.6598 C   0  0  0  0  0  0
   -3.9667   -0.5864    1.1988 C   0  0  0  0  0  0
    2.2004   -0.7890   -0.9790 C   0  0  0  0  0  0
    2.0076   -2.1217   -0.2622 C   0  0  0  0  0  0
    2.3663   -2.0225    1.2131 C   0  0  0  0  0  0
    1.5244   -0.9610    1.9050 C   0  0  0  0  0  0
    1.6449    0.4073    1.2336 C   0  0  0  0  0  0
    0.8266    3.2766   -0.6474 H   0  0  0  0  0  0
    1.9030    3.1309    0.7574 H   0  0  0  0  0  0
    2.4979    3.8442   -0.7369 H   0  0  0  0  0  0
    2.3413    1.7100   -1.9297 H   0  0  0  0  0  0
    3.3864    1.5970   -0.5295 H   0  0  0  0  0  0
   -0.7804   -0.8109    0.3859 H   0  0  0  0  0  0
   -1.9894   -1.8723   -1.4307 H   0  0  0  0  0  0
   -1.5954   -0.5600   -2.5590 H   0  0  0  0  0  0
   -0.3441   -1.6768   -2.0029 H   0  0  0  0  0  0
   -2.2696    1.4731   -0.9978 H   0  0  0  0  0  0
   -1.9676    1.2796    0.7213 H   0  0  0  0  0  0
   -3.7730   -0.4745   -1.0271 H   0  0  0  0  0  0
   -5.6018    0.5917    0.2250 H   0  0  0  0  0  0
   -4.4203    1.5945    1.1732 H   0  0  0  0  0  0
   -3.3472   -0.4949    2.0815 H   0  0  0  0  0  0
   -4.5264   -1.5123    1.1492 H   0  0  0  0  0  0
    1.8732   -0.8918   -2.0218 H   0  0  0  0  0  0
    3.2840   -0.6183   -1.0391 H   0  0  0  0  0  0
    0.9793   -2.4821   -0.3668 H   0  0  0  0  0  0
    2.6525   -2.8736   -0.7364 H   0  0  0  0  0  0
    2.2031   -2.9960    1.6928 H   0  0  0  0  0  0
    3.4310   -1.7836    1.3265 H   0  0  0  0  0  0
    0.4811   -1.2866    1.9495 H   0  0  0  0  0  0
    1.8525   -0.8726    2.9484 H   0  0  0  0  0  0
    2.6275    0.8043    1.5183 H   0  0  0  0  0  0
    0.9119    1.0860    1.6889 H   0  0  0  0  0  0
    0.1440    0.7709   -0.8527 N   0  3  0  0  0  0
   -0.1238    1.6929   -0.4887 H   0  0  0  0  0  0
    0.2065    0.8122   -1.8767 H   0  0  0  0  0  0
  1  2  1  0  0  0
  1 15  1  0  0  0
  1 16  1  0  0  0
  1 17  1  0  0  0
  2  3  1  0  0  0
  2 18  1  0  0  0
  2 19  1  0  0  0
  3 10  1  0  0  0
  3 14  1  0  0  0
  3 41  1  0  0  0
  4  5  1  0  0  0
  4  6  1  0  0  0
  4 20  1  0  0  0
  4 41  1  0  0  0
  5 21  1  0  0  0
  5 22  1  0  0  0
  5 23  1  0  0  0
  6  7  1  0  0  0
  6 24  1  0  0  0
  6 25  1  0  0  0
  7  8  1  0  0  0
  7  9  1  0  0  0
  7 26  1  0  0  0
  8  9  1  0  0  0
  8 27  1  0  0  0
  8 28  1  0  0  0
  9 29  1  0  0  0
  9 30  1  0  0  0
 10 11  1  0  0  0
 10 31  1  0  0  0
 10 32  1  0  0  0
 11 12  1  0  0  0
 11 33  1  0  0  0
 11 34  1  0  0  0
 12 13  1  0  0  0
 12 35  1  0  0  0
 12 36  1  0  0  0
 13 14  1  0  0  0
 13 37  1  0  0  0
 13 38  1  0  0  0
 14 39  1  0  0  0
 14 40  1  0  0  0
 41 42  1  0  0  0
 41 43  1  0  0  0
M  CHG  1  41   1
M  END
> <energy>
45.9985

> <chiral flag>
0

> <version>
0

> <i_ionizer_Ion_state_n>
1

> <i_ionizer_Tot_Q>
1

> <s_ionizer_Ion_centers>
41

> <s_ionizer_Ion_types>
N5

> <s_ionizer_Ion_ctrs_in>
4

> <r_ionizer_Ionization_penalty>
0.000148807

> <r_ionizer_Ionization_penalty_charging>
0.000148807

> <r_ionizer_Ionization_penalty_neutral>
0

$$$$
ZINC001258451119
                    3D
 Structure written by MMmdl.
 43 44  0  0  1  0            999 V2000
    1.5718    0.3381   -2.7393 C   0  0  0  0  0  0
    2.1195    0.6513   -1.3479 C   0  0  0  0  0  0
    1.1829    0.3133   -0.1337 C   0  0  0  0  0  0
   -1.1790    0.9692    0.5659 C   0  0  1  0  0  0
   -1.2164    2.1409    1.5545 C   0  0  0  0  0  0
   -2.5014    0.9603   -0.2426 C   0  0  0  0  0  0
   -2.5981   -0.1905   -1.2075 C   0  0  0  0  0  0
   -3.0410   -1.5550   -0.7506 C   0  0  0  0  0  0
   -3.9472   -0.7234   -1.6170 C   0  0  0  0  0  0
    0.9049   -1.2209   -0.0853 C   0  0  0  0  0  0
    2.0523   -1.9814    0.5751 C   0  0  0  0  0  0
    2.2311   -1.5669    2.0380 C   0  0  0  0  0  0
    1.7439   -0.1473    2.3374 C   0  0  0  0  0  0
    1.9517    0.7761    1.1426 C   0  0  0  0  0  0
    0.6392    0.8724   -2.9404 H   0  0  0  0  0  0
    1.3997   -0.7316   -2.8814 H   0  0  0  0  0  0
    2.2997    0.6486   -3.4956 H   0  0  0  0  0  0
    2.3698    1.7218   -1.3190 H   0  0  0  0  0  0
    3.0750    0.1220   -1.2394 H   0  0  0  0  0  0
   -1.1464    0.0433    1.1448 H   0  0  0  0  0  0
   -2.1126    2.0859    2.1826 H   0  0  0  0  0  0
   -1.2335    3.1053    1.0342 H   0  0  0  0  0  0
   -0.3528    2.1332    2.2251 H   0  0  0  0  0  0
   -2.6016    1.8961   -0.8071 H   0  0  0  0  0  0
   -3.3468    0.9256    0.4573 H   0  0  0  0  0  0
   -1.8363   -0.1396   -1.9786 H   0  0  0  0  0  0
   -2.5583   -2.4154   -1.2009 H   0  0  0  0  0  0
   -3.3165   -1.6936    0.2886 H   0  0  0  0  0  0
   -4.8364   -0.3028   -1.1612 H   0  0  0  0  0  0
   -4.0791   -1.0208   -2.6515 H   0  0  0  0  0  0
    0.0042   -1.4566    0.4906 H   0  0  0  0  0  0
    0.7135   -1.6276   -1.0819 H   0  0  0  0  0  0
    2.9835   -1.8050    0.0248 H   0  0  0  0  0  0
    1.8684   -3.0603    0.5238 H   0  0  0  0  0  0
    1.6910   -2.2649    2.6902 H   0  0  0  0  0  0
    3.2911   -1.6619    2.3026 H   0  0  0  0  0  0
    0.6845   -0.1728    2.6116 H   0  0  0  0  0  0
    2.2768    0.2424    3.2121 H   0  0  0  0  0  0
    1.6885    1.8061    1.4084 H   0  0  0  0  0  0
    3.0321    0.8125    0.9433 H   0  0  0  0  0  0
   -0.0535    1.1420   -0.4210 N   0  3  0  0  0  0
    0.2195    2.1318   -0.4226 H   0  0  0  0  0  0
   -0.4026    0.8818   -1.3509 H   0  0  0  0  0  0
  1  2  1  0  0  0
  1 15  1  0  0  0
  1 16  1  0  0  0
  1 17  1  0  0  0
  2  3  1  0  0  0
  2 18  1  0  0  0
  2 19  1  0  0  0
  3 10  1  0  0  0
  3 14  1  0  0  0
  3 41  1  0  0  0
  4  5  1  0  0  0
  4  6  1  0  0  0
  4 20  1  0  0  0
  4 41  1  0  0  0
  5 21  1  0  0  0
  5 22  1  0  0  0
  5 23  1  0  0  0
  6  7  1  0  0  0
  6 24  1  0  0  0
  6 25  1  0  0  0
  7  8  1  0  0  0
  7  9  1  0  0  0
  7 26  1  0  0  0
  8  9  1  0  0  0
  8 27  1  0  0  0
  8 28  1  0  0  0
  9 29  1  0  0  0
  9 30  1  0  0  0
 10 11  1  0  0  0
 10 31  1  0  0  0
 10 32  1  0  0  0
 11 12  1  0  0  0
 11 33  1  0  0  0
 11 34  1  0  0  0
 12 13  1  0  0  0
 12 35  1  0  0  0
 12 36  1  0  0  0
 13 14  1  0  0  0
 13 37  1  0  0  0
 13 38  1  0  0  0
 14 39  1  0  0  0
 14 40  1  0  0  0
 41 42  1  0  0  0
 41 43  1  0  0  0
M  CHG  1  41   1
M  END
> <energy>
47.9246

> <chiral flag>
0

> <version>
0

> <i_ionizer_Ion_state_n>
1

> <i_ionizer_Tot_Q>
1

> <s_ionizer_Ion_centers>
41

> <s_ionizer_Ion_types>
N5

> <s_ionizer_Ion_ctrs_in>
4

> <r_ionizer_Ionization_penalty>
0.000148807

> <r_ionizer_Ionization_penalty_charging>
0.000148807

> <r_ionizer_Ionization_penalty_neutral>
0

$$$$
ZINC001258451126
                    3D
 Structure written by MMmdl.
 40 42  0  0  1  0            999 V2000
   -1.2819    1.9631    0.6984 C   0  0  0  0  0  0
   -2.2753    0.8001    0.7759 C   0  0  2  0  0  0
   -1.6646   -0.4292    1.4865 C   0  0  0  0  0  0
   -1.3434   -0.1677    2.9328 C   0  0  0  0  0  0
   -0.4529   -1.1286    3.6766 C   0  0  0  0  0  0
    0.0419    0.2530    3.3521 C   0  0  0  0  0  0
   -2.1832   -0.3997   -1.4324 C   0  0  0  0  0  0
   -1.0265    0.2086   -2.2479 C   0  0  0  0  0  0
    0.2288   -0.6027   -2.1886 C   0  0  0  0  0  0
    0.3683   -1.9380   -2.5193 C   0  0  0  0  0  0
    1.6428   -2.3606   -2.3333 O   0  0  0  0  0  0
    2.3553   -1.2895   -1.8930 C   0  0  0  0  0  0
    3.7138   -1.2984   -1.5830 C   0  0  0  0  0  0
    4.2662   -0.0872   -1.1556 C   0  0  0  0  0  0
    3.4829    1.0638   -1.0512 C   0  0  0  0  0  0
    2.1170    1.0398   -1.3696 C   0  0  0  0  0  0
    1.5354   -0.1708   -1.7959 C   0  0  0  0  0  0
   -1.6814    2.7936    0.1068 H   0  0  0  0  0  0
   -0.3309    1.6524    0.2609 H   0  0  0  0  0  0
   -1.0695    2.3613    1.6961 H   0  0  0  0  0  0
   -3.1053    1.1546    1.4005 H   0  0  0  0  0  0
   -0.7615   -0.7639    0.9613 H   0  0  0  0  0  0
   -2.3823   -1.2586    1.4562 H   0  0  0  0  0  0
   -2.1921    0.2315    3.4774 H   0  0  0  0  0  0
   -0.0214   -1.9621    3.1330 H   0  0  0  0  0  0
   -0.7001   -1.3533    4.7077 H   0  0  0  0  0  0
    0.8115    0.3468    2.5938 H   0  0  0  0  0  0
    0.1302    0.9667    4.1631 H   0  0  0  0  0  0
   -1.8942   -1.3180   -0.9116 H   0  0  0  0  0  0
   -2.9364   -0.7373   -2.1567 H   0  0  0  0  0  0
   -1.3370    0.2869   -3.2984 H   0  0  0  0  0  0
   -0.8203    1.2368   -1.9341 H   0  0  0  0  0  0
   -0.3202   -2.6926   -2.8748 H   0  0  0  0  0  0
    4.3048   -2.2016   -1.6741 H   0  0  0  0  0  0
    5.3234   -0.0430   -0.9042 H   0  0  0  0  0  0
    3.9384    1.9947   -0.7193 H   0  0  0  0  0  0
    1.5250    1.9463   -1.2880 H   0  0  0  0  0  0
   -2.9388    0.5418   -0.5503 N   0  3  0  0  0  0
   -3.8689    0.1440   -0.3746 H   0  0  0  0  0  0
   -3.0371    1.4374   -1.0427 H   0  0  0  0  0  0
  1  2  1  0  0  0
  1 18  1  0  0  0
  1 19  1  0  0  0
  1 20  1  0  0  0
  2  3  1  0  0  0
  2 21  1  0  0  0
  2 38  1  0  0  0
  3  4  1  0  0  0
  3 22  1  0  0  0
  3 23  1  0  0  0
  4  5  1  0  0  0
  4  6  1  0  0  0
  4 24  1  0  0  0
  5  6  1  0  0  0
  5 25  1  0  0  0
  5 26  1  0  0  0
  6 27  1  0  0  0
  6 28  1  0  0  0
  7  8  1  0  0  0
  7 29  1  0  0  0
  7 30  1  0  0  0
  7 38  1  0  0  0
  8  9  1  0  0  0
  8 31  1  0  0  0
  8 32  1  0  0  0
  9 10  2  0  0  0
  9 17  1  0  0  0
 10 11  1  0  0  0
 10 33  1  0  0  0
 11 12  1  0  0  0
 12 13  1  0  0  0
 12 17  2  0  0  0
 13 14  2  0  0  0
 13 34  1  0  0  0
 14 15  1  0  0  0
 14 35  1  0  0  0
 15 16  2  0  0  0
 15 36  1  0  0  0
 16 17  1  0  0  0
 16 37  1  0  0  0
 38 39  1  0  0  0
 38 40  1  0  0  0
M  CHG  1  38   1
M  END
> <energy>
63.7038

> <chiral flag>
0

> <version>
0

> <i_ionizer_Ion_state_n>
1

> <i_ionizer_Tot_Q>
1

> <s_ionizer_Ion_centers>
38

> <s_ionizer_Ion_types>
N5

> <s_ionizer_Ion_ctrs_in>
7

> <r_ionizer_Ionization_penalty>
0.000148807

> <r_ionizer_Ionization_penalty_charging>
0.000148807

> <r_ionizer_Ionization_penalty_neutral>
0

$$$$
ZINC001258451127
                    3D
 Structure written by MMmdl.
 40 42  0  0  1  0            999 V2000
   -3.0841   -1.5605   -1.2750 C   0  0  0  0  0  0
   -1.8313   -0.7000   -1.4480 C   0  0  1  0  0  0
   -2.0785    0.8139   -1.2432 C   0  0  0  0  0  0
   -2.7007    1.2292    0.0641 C   0  0  0  0  0  0
   -2.9219    2.7014    0.3124 C   0  0  0  0  0  0
   -1.9006    1.9544    1.1176 C   0  0  0  0  0  0
   -0.8092   -1.5133    0.6743 C   0  0  0  0  0  0
    0.5372   -1.8393    1.3480 C   0  0  0  0  0  0
    1.4896   -0.6880    1.3614 C   0  0  0  0  0  0
    1.5107    0.3665    2.2537 C   0  0  0  0  0  0
    2.4994    1.2458    1.9501 O   0  0  0  0  0  0
    3.1345    0.7629    0.8476 C   0  0  0  0  0  0
    4.2070    1.3720    0.2007 C   0  0  0  0  0  0
    4.7193    0.7099   -0.9195 C   0  0  0  0  0  0
    4.1705   -0.4981   -1.3582 C   0  0  0  0  0  0
    3.0870   -1.0830   -0.6867 C   0  0  0  0  0  0
    2.5568   -0.4347    0.4450 C   0  0  0  0  0  0
   -2.8847   -2.5951   -1.5770 H   0  0  0  0  0  0
   -3.8967   -1.1815   -1.9042 H   0  0  0  0  0  0
   -3.4430   -1.5783   -0.2422 H   0  0  0  0  0  0
   -1.5652   -0.7822   -2.5121 H   0  0  0  0  0  0
   -1.1354    1.3550   -1.4016 H   0  0  0  0  0  0
   -2.7550    1.1502   -2.0417 H   0  0  0  0  0  0
   -3.5030    0.5754    0.3814 H   0  0  0  0  0  0
   -3.8394    3.0004    0.8063 H   0  0  0  0  0  0
   -2.5634    3.4128   -0.4227 H   0  0  0  0  0  0
   -0.8517    2.1528    0.9244 H   0  0  0  0  0  0
   -2.1270    1.7515    2.1579 H   0  0  0  0  0  0
   -1.4648   -2.3831    0.7973 H   0  0  0  0  0  0
   -1.2694   -0.6790    1.2073 H   0  0  0  0  0  0
    0.9995   -2.7023    0.8528 H   0  0  0  0  0  0
    0.3460   -2.1519    2.3824 H   0  0  0  0  0  0
    0.9069    0.6283    3.1114 H   0  0  0  0  0  0
    4.6150    2.3123    0.5499 H   0  0  0  0  0  0
    5.5565    1.1448   -1.4595 H   0  0  0  0  0  0
    4.5823   -0.9891   -2.2370 H   0  0  0  0  0  0
    2.6616   -2.0156   -1.0425 H   0  0  0  0  0  0
   -0.6035   -1.2216   -0.7724 N   0  3  0  0  0  0
   -0.3154   -2.0880   -1.2423 H   0  0  0  0  0  0
    0.1410   -0.5202   -0.8613 H   0  0  0  0  0  0
  1  2  1  0  0  0
  1 18  1  0  0  0
  1 19  1  0  0  0
  1 20  1  0  0  0
  2  3  1  0  0  0
  2 21  1  0  0  0
  2 38  1  0  0  0
  3  4  1  0  0  0
  3 22  1  0  0  0
  3 23  1  0  0  0
  4  5  1  0  0  0
  4  6  1  0  0  0
  4 24  1  0  0  0
  5  6  1  0  0  0
  5 25  1  0  0  0
  5 26  1  0  0  0
  6 27  1  0  0  0
  6 28  1  0  0  0
  7  8  1  0  0  0
  7 29  1  0  0  0
  7 30  1  0  0  0
  7 38  1  0  0  0
  8  9  1  0  0  0
  8 31  1  0  0  0
  8 32  1  0  0  0
  9 10  2  0  0  0
  9 17  1  0  0  0
 10 11  1  0  0  0
 10 33  1  0  0  0
 11 12  1  0  0  0
 12 13  1  0  0  0
 12 17  2  0  0  0
 13 14  2  0  0  0
 13 34  1  0  0  0
 14 15  1  0  0  0
 14 35  1  0  0  0
 15 16  2  0  0  0
 15 36  1  0  0  0
 16 17  1  0  0  0
 16 37  1  0  0  0
 38 39  1  0  0  0
 38 40  1  0  0  0
M  CHG  1  38   1
M  END
> <energy>
62.8264

> <chiral flag>
0

> <version>
0

> <i_ionizer_Ion_state_n>
1

> <i_ionizer_Tot_Q>
1

> <s_ionizer_Ion_centers>
38

> <s_ionizer_Ion_types>
N5

> <s_ionizer_Ion_ctrs_in>
7

> <r_ionizer_Ionization_penalty>
0.000148807

> <r_ionizer_Ionization_penalty_charging>
0.000148807

> <r_ionizer_Ionization_penalty_neutral>
0

$$$$
ZINC001258451166
                    3D
 Structure written by MMmdl.
 38 40  0  0  1  0            999 V2000
   -1.9542   -1.3454   -1.5295 C   0  0  0  0  0  0
   -1.9482   -1.5754   -0.0170 C   0  0  2  0  0  0
   -2.9221   -0.6655    0.7622 C   0  0  0  0  0  0
   -2.8819    0.7925    0.3986 C   0  0  0  0  0  0
   -3.8157    1.3508   -0.6452 C   0  0  0  0  0  0
   -4.0272    1.6849    0.8046 C   0  0  0  0  0  0
    0.2981   -0.5095    0.3411 C   0  0  1  0  0  0
    0.5930    0.4629    1.4437 C   0  0  0  0  0  0
    1.6526   -0.5275    1.0335 C   0  0  2  0  0  0
    2.8774   -0.0849    0.2697 C   0  0  0  0  0  0
    3.6595    1.0011    0.6969 C   0  0  0  0  0  0
    4.8013    1.3992   -0.0040 C   0  0  0  0  0  0
    5.1906    0.7091   -1.1499 C   0  0  0  0  0  0
    4.4375   -0.3776   -1.5830 C   0  0  0  0  0  0
    4.9175   -1.2413   -2.9907 Cl  0  0  0  0  0  0
    3.2970   -0.7729   -0.8821 C   0  0  0  0  0  0
   -2.9654   -1.4730   -1.9312 H   0  0  0  0  0  0
   -1.6131   -0.3426   -1.8051 H   0  0  0  0  0  0
   -1.3051   -2.0688   -2.0357 H   0  0  0  0  0  0
   -2.3393   -2.5940    0.1219 H   0  0  0  0  0  0
   -2.7343   -0.7631    1.8392 H   0  0  0  0  0  0
   -3.9402   -1.0474    0.6049 H   0  0  0  0  0  0
   -1.8896    1.2175    0.4694 H   0  0  0  0  0  0
   -3.4376    2.1297   -1.2981 H   0  0  0  0  0  0
   -4.5249    0.6832   -1.1214 H   0  0  0  0  0  0
   -3.7973    2.6936    1.1306 H   0  0  0  0  0  0
   -4.8782    1.2410    1.3090 H   0  0  0  0  0  0
    0.3034   -0.1157   -0.6736 H   0  0  0  0  0  0
    0.7114    1.5048    1.1661 H   0  0  0  0  0  0
    0.1156    0.3243    2.4069 H   0  0  0  0  0  0
    1.8280   -1.3453    1.7302 H   0  0  0  0  0  0
    3.3724    1.5457    1.5946 H   0  0  0  0  0  0
    5.3868    2.2444    0.3482 H   0  0  0  0  0  0
    6.0774    1.0199   -1.6949 H   0  0  0  0  0  0
    2.7219   -1.6308   -1.2264 H   0  0  0  0  0  0
   -0.5787   -1.6971    0.5915 N   0  3  0  0  0  0
   -0.6839   -1.8142    1.6062 H   0  0  0  0  0  0
   -0.1209   -2.5270    0.1968 H   0  0  0  0  0  0
  1  2  1  0  0  0
  1 17  1  0  0  0
  1 18  1  0  0  0
  1 19  1  0  0  0
  2  3  1  0  0  0
  2 20  1  0  0  0
  2 36  1  0  0  0
  3  4  1  0  0  0
  3 21  1  0  0  0
  3 22  1  0  0  0
  4  5  1  0  0  0
  4  6  1  0  0  0
  4 23  1  0  0  0
  5  6  1  0  0  0
  5 24  1  0  0  0
  5 25  1  0  0  0
  6 26  1  0  0  0
  6 27  1  0  0  0
  7  8  1  0  0  0
  7  9  1  0  0  0
  7 28  1  0  0  0
  7 36  1  0  0  0
  8  9  1  0  0  0
  8 29  1  0  0  0
  8 30  1  0  0  0
  9 10  1  0  0  0
  9 31  1  0  0  0
 10 11  2  0  0  0
 10 16  1  0  0  0
 11 12  1  0  0  0
 11 32  1  0  0  0
 12 13  2  0  0  0
 12 33  1  0  0  0
 13 14  1  0  0  0
 13 34  1  0  0  0
 14 15  1  0  0  0
 14 16  2  0  0  0
 16 35  1  0  0  0
 36 37  1  0  0  0
 36 38  1  0  0  0
M  CHG  1  36   1
M  END
> <energy>
44.8269

> <chiral flag>
0

> <version>
0

> <i_ionizer_Ion_state_n>
1

> <i_ionizer_Tot_Q>
1

> <s_ionizer_Ion_centers>
36

> <s_ionizer_Ion_types>
N5

> <s_ionizer_Ion_ctrs_in>
7

> <r_ionizer_Ionization_penalty>
0.000148807

> <r_ionizer_Ionization_penalty_charging>
0.000148807

> <r_ionizer_Ionization_penalty_neutral>
0

$$$$
ZINC001258451167
                    3D
 Structure written by MMmdl.
 38 40  0  0  1  0            999 V2000
   -2.3710   -1.6961    1.4467 C   0  0  0  0  0  0
   -1.3913   -0.5576    1.1531 C   0  0  2  0  0  0
   -1.7942    0.2687   -0.0880 C   0  0  0  0  0  0
   -2.7535    1.3768    0.2667 C   0  0  0  0  0  0
   -2.2284    2.7145    0.7297 C   0  0  0  0  0  0
   -2.8752    2.5901   -0.6216 C   0  0  0  0  0  0
    0.3360   -2.1831    0.2804 C   0  0  1  0  0  0
    0.2367   -2.2065   -1.2116 C   0  0  0  0  0  0
    1.6036   -2.1289   -0.5766 C   0  0  1  0  0  0
    2.4044   -0.8393   -0.6279 C   0  0  0  0  0  0
    3.1320   -0.4015    0.4962 C   0  0  0  0  0  0
    3.7638    0.8427    0.5209 C   0  0  0  0  0  0
    3.7018    1.6737   -0.5962 C   0  0  0  0  0  0
    3.0297    1.2428   -1.7365 C   0  0  0  0  0  0
    2.9514    2.2599   -3.1236 Cl  0  0  0  0  0  0
    2.4042   -0.0049   -1.7614 C   0  0  0  0  0  0
   -2.0678   -2.2347    2.3504 H   0  0  0  0  0  0
   -2.4256   -2.4095    0.6188 H   0  0  0  0  0  0
   -3.3799   -1.3084    1.6128 H   0  0  0  0  0  0
   -1.4349    0.1177    2.0191 H   0  0  0  0  0  0
   -2.2485   -0.3744   -0.8524 H   0  0  0  0  0  0
   -0.9008    0.7207   -0.5402 H   0  0  0  0  0  0
   -3.6554    1.0017    0.7372 H   0  0  0  0  0  0
   -1.1523    2.8721    0.7611 H   0  0  0  0  0  0
   -2.7766    3.2333    1.5078 H   0  0  0  0  0  0
   -2.2265    2.6885   -1.4850 H   0  0  0  0  0  0
   -3.8589    3.0277   -0.7518 H   0  0  0  0  0  0
    0.1375   -3.1310    0.7780 H   0  0  0  0  0  0
   -0.0514   -3.1433   -1.6800 H   0  0  0  0  0  0
   -0.1522   -1.3435   -1.7353 H   0  0  0  0  0  0
    2.1935   -3.0420   -0.6046 H   0  0  0  0  0  0
    3.1578   -1.0319    1.3860 H   0  0  0  0  0  0
    4.2798    1.1689    1.4214 H   0  0  0  0  0  0
    4.1671    2.6511   -0.5651 H   0  0  0  0  0  0
    1.8693   -0.3098   -2.6575 H   0  0  0  0  0  0
    0.0498   -0.9706    1.1260 N   0  3  0  0  0  0
    0.6013   -0.1861    0.7589 H   0  0  0  0  0  0
    0.3431   -1.1743    2.0886 H   0  0  0  0  0  0
  1  2  1  0  0  0
  1 17  1  0  0  0
  1 18  1  0  0  0
  1 19  1  0  0  0
  2  3  1  0  0  0
  2 20  1  0  0  0
  2 36  1  0  0  0
  3  4  1  0  0  0
  3 21  1  0  0  0
  3 22  1  0  0  0
  4  5  1  0  0  0
  4  6  1  0  0  0
  4 23  1  0  0  0
  5  6  1  0  0  0
  5 24  1  0  0  0
  5 25  1  0  0  0
  6 26  1  0  0  0
  6 27  1  0  0  0
  7  8  1  0  0  0
  7  9  1  0  0  0
  7 28  1  0  0  0
  7 36  1  0  0  0
  8  9  1  0  0  0
  8 29  1  0  0  0
  8 30  1  0  0  0
  9 10  1  0  0  0
  9 31  1  0  0  0
 10 11  2  0  0  0
 10 16  1  0  0  0
 11 12  1  0  0  0
 11 32  1  0  0  0
 12 13  2  0  0  0
 12 33  1  0  0  0
 13 14  1  0  0  0
 13 34  1  0  0  0
 14 15  1  0  0  0
 14 16  2  0  0  0
 16 35  1  0  0  0
 36 37  1  0  0  0
 36 38  1  0  0  0
M  CHG  1  36   1
M  END
> <energy>
48.085

> <chiral flag>
0

> <version>
0

> <i_ionizer_Ion_state_n>
1

> <i_ionizer_Tot_Q>
1

> <s_ionizer_Ion_centers>
36

> <s_ionizer_Ion_types>
N5

> <s_ionizer_Ion_ctrs_in>
7

> <r_ionizer_Ionization_penalty>
0.000148807

> <r_ionizer_Ionization_penalty_charging>
0.000148807

> <r_ionizer_Ionization_penalty_neutral>
0

$$$$
ZINC001258451168
                    3D
 Structure written by MMmdl.
 38 40  0  0  1  0            999 V2000
   -3.0325    0.4371    0.5087 C   0  0  0  0  0  0
   -1.7371    0.2345   -0.2848 C   0  0  2  0  0  0
   -1.1065   -1.1553   -0.0540 C   0  0  0  0  0  0
   -1.9567   -2.2743   -0.5941 C   0  0  0  0  0  0
   -2.9247   -3.0265    0.2849 C   0  0  0  0  0  0
   -1.6590   -3.6925   -0.1790 C   0  0  0  0  0  0
   -0.1671    1.3975    1.2815 C   0  0  2  0  0  0
    0.5724    2.6544    1.6462 C   0  0  0  0  0  0
    1.3453    1.3792    1.4386 C   0  0  2  0  0  0
    2.2411    1.1415    0.2377 C   0  0  0  0  0  0
    2.5996   -0.1753   -0.1081 C   0  0  0  0  0  0
    3.4040   -0.4545   -1.2166 C   0  0  0  0  0  0
    3.8806    0.5857   -2.0061 C   0  0  0  0  0  0
    3.5650    1.8987   -1.6712 C   0  0  0  0  0  0
    4.1639    3.1932   -2.6375 Cl  0  0  0  0  0  0
    2.7632    2.1758   -0.5596 C   0  0  0  0  0  0
   -3.8241   -0.2154    0.1253 H   0  0  0  0  0  0
   -2.8994    0.2161    1.5726 H   0  0  0  0  0  0
   -3.3943    1.4670    0.4178 H   0  0  0  0  0  0
   -2.0053    0.3005   -1.3472 H   0  0  0  0  0  0
   -0.1455   -1.2050   -0.5792 H   0  0  0  0  0  0
   -0.9004   -1.3136    1.0112 H   0  0  0  0  0  0
   -2.2301   -2.1193   -1.6329 H   0  0  0  0  0  0
   -3.8623   -3.3473   -0.1576 H   0  0  0  0  0  0
   -3.0015   -2.7551    1.3317 H   0  0  0  0  0  0
   -1.7344   -4.4684   -0.9315 H   0  0  0  0  0  0
   -0.8806   -3.8706    0.5523 H   0  0  0  0  0  0
   -0.7400    0.9520    2.0922 H   0  0  0  0  0  0
    0.6290    3.4468    0.9111 H   0  0  0  0  0  0
    0.4795    3.0194    2.6635 H   0  0  0  0  0  0
    1.7062    0.9142    2.3560 H   0  0  0  0  0  0
    2.2296   -1.0021    0.4957 H   0  0  0  0  0  0
    3.6451   -1.4834   -1.4634 H   0  0  0  0  0  0
    4.4977    0.3696   -2.8741 H   0  0  0  0  0  0
    2.5353    3.2118   -0.3253 H   0  0  0  0  0  0
   -0.7827    1.3752   -0.0842 N   0  3  0  0  0  0
   -0.0312    1.2979   -0.7795 H   0  0  0  0  0  0
   -1.2918    2.2554   -0.2268 H   0  0  0  0  0  0
  1  2  1  0  0  0
  1 17  1  0  0  0
  1 18  1  0  0  0
  1 19  1  0  0  0
  2  3  1  0  0  0
  2 20  1  0  0  0
  2 36  1  0  0  0
  3  4  1  0  0  0
  3 21  1  0  0  0
  3 22  1  0  0  0
  4  5  1  0  0  0
  4  6  1  0  0  0
  4 23  1  0  0  0
  5  6  1  0  0  0
  5 24  1  0  0  0
  5 25  1  0  0  0
  6 26  1  0  0  0
  6 27  1  0  0  0
  7  8  1  0  0  0
  7  9  1  0  0  0
  7 28  1  0  0  0
  7 36  1  0  0  0
  8  9  1  0  0  0
  8 29  1  0  0  0
  8 30  1  0  0  0
  9 10  1  0  0  0
  9 31  1  0  0  0
 10 11  2  0  0  0
 10 16  1  0  0  0
 11 12  1  0  0  0
 11 32  1  0  0  0
 12 13  2  0  0  0
 12 33  1  0  0  0
 13 14  1  0  0  0
 13 34  1  0  0  0
 14 15  1  0  0  0
 14 16  2  0  0  0
 16 35  1  0  0  0
 36 37  1  0  0  0
 36 38  1  0  0  0
M  CHG  1  36   1
M  END
> <energy>
44.7777

> <chiral flag>
0

> <version>
0

> <i_ionizer_Ion_state_n>
1

> <i_ionizer_Tot_Q>
1

> <s_ionizer_Ion_centers>
36

> <s_ionizer_Ion_types>
N5

> <s_ionizer_Ion_ctrs_in>
7

> <r_ionizer_Ionization_penalty>
0.000148807

> <r_ionizer_Ionization_penalty_charging>
0.000148807

> <r_ionizer_Ionization_penalty_neutral>
0

$$$$
ZINC001258451169
                    3D
 Structure written by MMmdl.
 38 40  0  0  1  0            999 V2000
   -1.3675   -2.0631    1.4820 C   0  0  0  0  0  0
   -1.5253   -0.9220    0.4730 C   0  0  2  0  0  0
   -3.0005   -0.4663    0.3784 C   0  0  0  0  0  0
   -3.1678    0.9555    0.8485 C   0  0  0  0  0  0
   -2.8994    2.0970   -0.0973 C   0  0  0  0  0  0
   -4.3080    1.7970    0.3359 C   0  0  0  0  0  0
    0.1529   -0.6585   -1.2875 C   0  0  2  0  0  0
    1.0399   -1.2687   -2.3327 C   0  0  0  0  0  0
    1.5203   -1.1873   -0.9051 C   0  0  1  0  0  0
    2.5793   -0.2107   -0.4281 C   0  0  0  0  0  0
    2.9889    0.9212   -1.1573 C   0  0  0  0  0  0
    3.9601    1.8021   -0.6677 C   0  0  0  0  0  0
    4.5508    1.5715    0.5714 C   0  0  0  0  0  0
    4.1660    0.4611    1.3113 C   0  0  0  0  0  0
    4.8863    0.1620    2.8457 Cl  0  0  0  0  0  0
    3.1954   -0.4153    0.8208 C   0  0  0  0  0  0
   -1.9293   -2.9531    1.1748 H   0  0  0  0  0  0
   -0.3147   -2.3483    1.5864 H   0  0  0  0  0  0
   -1.7313   -1.7578    2.4693 H   0  0  0  0  0  0
   -0.9067   -0.0874    0.8309 H   0  0  0  0  0  0
   -3.3756   -0.5588   -0.6490 H   0  0  0  0  0  0
   -3.6463   -1.1086    0.9909 H   0  0  0  0  0  0
   -2.8861    1.0799    1.8888 H   0  0  0  0  0  0
   -2.6245    1.8681   -1.1215 H   0  0  0  0  0  0
   -2.4207    2.9844    0.3007 H   0  0  0  0  0  0
   -4.7817    2.4843    1.0276 H   0  0  0  0  0  0
   -4.9819    1.3681   -0.3973 H   0  0  0  0  0  0
    0.0305    0.4219   -1.3562 H   0  0  0  0  0  0
    0.7851   -2.2486   -2.7219 H   0  0  0  0  0  0
    1.4587   -0.6137   -3.0859 H   0  0  0  0  0  0
    1.5391   -2.1523   -0.3976 H   0  0  0  0  0  0
    2.5425    1.1371   -2.1249 H   0  0  0  0  0  0
    4.2483    2.6701   -1.2553 H   0  0  0  0  0  0
    5.3046    2.2569    0.9497 H   0  0  0  0  0  0
    2.9083   -1.2752    1.4223 H   0  0  0  0  0  0
   -1.0680   -1.3808   -0.8655 N   0  3  0  0  0  0
   -0.8653   -2.3865   -0.8242 H   0  0  0  0  0  0
   -1.8128   -1.2096   -1.5513 H   0  0  0  0  0  0
  1  2  1  0  0  0
  1 17  1  0  0  0
  1 18  1  0  0  0
  1 19  1  0  0  0
  2  3  1  0  0  0
  2 20  1  0  0  0
  2 36  1  0  0  0
  3  4  1  0  0  0
  3 21  1  0  0  0
  3 22  1  0  0  0
  4  5  1  0  0  0
  4  6  1  0  0  0
  4 23  1  0  0  0
  5  6  1  0  0  0
  5 24  1  0  0  0
  5 25  1  0  0  0
  6 26  1  0  0  0
  6 27  1  0  0  0
  7  8  1  0  0  0
  7  9  1  0  0  0
  7 28  1  0  0  0
  7 36  1  0  0  0
  8  9  1  0  0  0
  8 29  1  0  0  0
  8 30  1  0  0  0
  9 10  1  0  0  0
  9 31  1  0  0  0
 10 11  2  0  0  0
 10 16  1  0  0  0
 11 12  1  0  0  0
 11 32  1  0  0  0
 12 13  2  0  0  0
 12 33  1  0  0  0
 13 14  1  0  0  0
 13 34  1  0  0  0
 14 15  1  0  0  0
 14 16  2  0  0  0
 16 35  1  0  0  0
 36 37  1  0  0  0
 36 38  1  0  0  0
M  CHG  1  36   1
M  END
> <energy>
48.0442

> <chiral flag>
0

> <version>
0

> <i_ionizer_Ion_state_n>
1

> <i_ionizer_Tot_Q>
1

> <s_ionizer_Ion_centers>
36

> <s_ionizer_Ion_types>
N5

> <s_ionizer_Ion_ctrs_in>
7

> <r_ionizer_Ionization_penalty>
0.000148807

> <r_ionizer_Ionization_penalty_charging>
0.000148807

> <r_ionizer_Ionization_penalty_neutral>
0

$$$$
ZINC001258451851
                    3D
 Structure written by MMmdl.
 41 43  0  0  1  0            999 V2000
   -4.1504    3.4430    0.7614 C   0  0  0  0  0  0
   -3.2667    2.2390    0.6044 C   0  0  0  0  0  0
   -2.6473    1.6586    1.7311 C   0  0  0  0  0  0
   -1.8343    0.5264    1.6076 C   0  0  0  0  0  0
   -1.6637   -0.0297    0.3519 C   0  0  0  0  0  0
   -2.2853    0.5355   -0.7693 C   0  0  0  0  0  0
   -3.0867    1.6617   -0.6598 C   0  0  0  0  0  0
   -1.9149   -0.2085   -2.0133 C   0  0  0  0  0  0
   -1.4302   -1.5389   -1.4216 C   0  0  0  0  0  0
   -0.8250   -1.2227   -0.0349 C   0  0  1  0  0  0
    1.4649   -1.5226    0.8034 C   0  0  1  0  0  0
    1.6905   -2.9891    0.4159 C   0  0  0  0  0  0
    2.8098   -0.7661    0.9468 C   0  0  0  0  0  0
    3.5491   -0.5466   -0.3461 C   0  0  0  0  0  0
    3.4622    0.7765   -1.0633 C   0  0  0  0  0  0
    4.7390    0.3795   -0.3749 C   0  0  0  0  0  0
   -5.1954    3.1329    0.8532 H   0  0  0  0  0  0
   -3.8764    4.0207    1.6501 H   0  0  0  0  0  0
   -4.0528    4.1113   -0.1005 H   0  0  0  0  0  0
   -2.7924    2.0967    2.7163 H   0  0  0  0  0  0
   -1.3514    0.0965    2.4792 H   0  0  0  0  0  0
   -3.5601    2.0864   -1.5406 H   0  0  0  0  0  0
   -2.7671   -0.3551   -2.6835 H   0  0  0  0  0  0
   -1.1077    0.3133   -2.5386 H   0  0  0  0  0  0
   -0.7379   -2.0660   -2.0878 H   0  0  0  0  0  0
   -2.2964   -2.2025   -1.2824 H   0  0  0  0  0  0
   -1.0033   -2.0648    0.6447 H   0  0  0  0  0  0
    0.9979   -1.4959    1.7969 H   0  0  0  0  0  0
    2.0049   -3.0924   -0.6288 H   0  0  0  0  0  0
    2.4643   -3.4446    1.0444 H   0  0  0  0  0  0
    0.7752   -3.5780    0.5436 H   0  0  0  0  0  0
    3.4639   -1.3264    1.6263 H   0  0  0  0  0  0
    2.6195    0.2010    1.4328 H   0  0  0  0  0  0
    3.6206   -1.4454   -0.9478 H   0  0  0  0  0  0
    2.8754    1.5739   -0.6219 H   0  0  0  0  0  0
    3.4353    0.7577   -2.1472 H   0  0  0  0  0  0
    5.5838    0.1013   -0.9957 H   0  0  0  0  0  0
    5.0105    0.9063    0.5325 H   0  0  0  0  0  0
    0.5990   -0.8489   -0.1985 N   0  3  0  0  0  0
    0.9075   -1.1193   -1.1398 H   0  0  0  0  0  0
    0.6907    0.1676   -0.0871 H   0  0  0  0  0  0
  1  2  1  0  0  0
  1 17  1  0  0  0
  1 18  1  0  0  0
  1 19  1  0  0  0
  2  3  2  0  0  0
  2  7  1  0  0  0
  3  4  1  0  0  0
  3 20  1  0  0  0
  4  5  2  0  0  0
  4 21  1  0  0  0
  5  6  1  0  0  0
  5 10  1  0  0  0
  6  7  2  0  0  0
  6  8  1  0  0  0
  7 22  1  0  0  0
  8  9  1  0  0  0
  8 23  1  0  0  0
  8 24  1  0  0  0
  9 10  1  0  0  0
  9 25  1  0  0  0
  9 26  1  0  0  0
 10 27  1  0  0  0
 10 39  1  0  0  0
 11 12  1  0  0  0
 11 13  1  0  0  0
 11 28  1  0  0  0
 11 39  1  0  0  0
 12 29  1  0  0  0
 12 30  1  0  0  0
 12 31  1  0  0  0
 13 14  1  0  0  0
 13 32  1  0  0  0
 13 33  1  0  0  0
 14 15  1  0  0  0
 14 16  1  0  0  0
 14 34  1  0  0  0
 15 16  1  0  0  0
 15 35  1  0  0  0
 15 36  1  0  0  0
 16 37  1  0  0  0
 16 38  1  0  0  0
 39 40  1  0  0  0
 39 41  1  0  0  0
M  CHG  1  39   1
M  END
> <energy>
52.5272

> <chiral flag>
0

> <version>
0

> <i_ionizer_Ion_state_n>
1

> <i_ionizer_Tot_Q>
1

> <s_ionizer_Ion_centers>
39

> <s_ionizer_Ion_types>
N5

> <s_ionizer_Ion_ctrs_in>
11

> <r_ionizer_Ionization_penalty>
0.000148807

> <r_ionizer_Ionization_penalty_charging>
0.000148807

> <r_ionizer_Ionization_penalty_neutral>
0

$$$$
ZINC001258451852
                    3D
 Structure written by MMmdl.
 41 43  0  0  1  0            999 V2000
   -5.1577    1.8996   -0.9002 C   0  0  0  0  0  0
   -3.8135    1.2582   -0.7077 C   0  0  0  0  0  0
   -2.9134    1.7837    0.2376 C   0  0  0  0  0  0
   -1.6529    1.2050    0.4422 C   0  0  0  0  0  0
   -1.3052    0.0713   -0.2749 C   0  0  0  0  0  0
   -2.2094   -0.4524   -1.2128 C   0  0  0  0  0  0
   -3.4539    0.1207   -1.4389 C   0  0  0  0  0  0
   -1.6135   -1.6102   -1.9522 C   0  0  0  0  0  0
   -0.4732   -1.9970   -1.0091 C   0  0  0  0  0  0
    0.0004   -0.6816   -0.3399 C   0  0  2  0  0  0
    1.4059    0.0181    1.6069 C   0  0  1  0  0  0
    2.2460   -0.6354    2.7127 C   0  0  0  0  0  0
    2.2380    0.9996    0.7520 C   0  0  0  0  0  0
    3.1997    0.4659   -0.2786 C   0  0  0  0  0  0
    3.6403   -0.9710   -0.4443 C   0  0  0  0  0  0
    4.5801    0.0346    0.1539 C   0  0  0  0  0  0
   -5.6460    1.5470   -1.8156 H   0  0  0  0  0  0
   -5.8099    1.6669   -0.0515 H   0  0  0  0  0  0
   -5.0545    2.9871   -0.9852 H   0  0  0  0  0  0
   -3.1849    2.6757    0.8030 H   0  0  0  0  0  0
   -0.9678    1.6685    1.1430 H   0  0  0  0  0  0
   -4.1262   -0.3061   -2.1775 H   0  0  0  0  0  0
   -2.3220   -2.4348   -2.0763 H   0  0  0  0  0  0
   -1.2373   -1.2829   -2.9275 H   0  0  0  0  0  0
    0.3392   -2.5125   -1.5336 H   0  0  0  0  0  0
   -0.8607   -2.6989   -0.2566 H   0  0  0  0  0  0
    0.6683   -0.1703   -1.0424 H   0  0  0  0  0  0
    0.6684    0.6283    2.1398 H   0  0  0  0  0  0
    3.0298   -1.2889    2.3228 H   0  0  0  0  0  0
    1.6125   -1.2435    3.3708 H   0  0  0  0  0  0
    2.7248    0.1287    3.3343 H   0  0  0  0  0  0
    1.5338    1.6547    0.2183 H   0  0  0  0  0  0
    2.7838    1.6830    1.4156 H   0  0  0  0  0  0
    3.1437    1.0610   -1.1854 H   0  0  0  0  0  0
    3.8559   -1.3265   -1.4469 H   0  0  0  0  0  0
    3.2335   -1.7445    0.1925 H   0  0  0  0  0  0
    4.7990   -0.0432    1.2123 H   0  0  0  0  0  0
    5.4233    0.3612   -0.4443 H   0  0  0  0  0  0
    0.6628   -1.0878    0.9278 N   0  3  0  0  0  0
   -0.0576   -1.4357    1.5714 H   0  0  0  0  0  0
    1.3271   -1.8420    0.7177 H   0  0  0  0  0  0
  1  2  1  0  0  0
  1 17  1  0  0  0
  1 18  1  0  0  0
  1 19  1  0  0  0
  2  3  2  0  0  0
  2  7  1  0  0  0
  3  4  1  0  0  0
  3 20  1  0  0  0
  4  5  2  0  0  0
  4 21  1  0  0  0
  5  6  1  0  0  0
  5 10  1  0  0  0
  6  7  2  0  0  0
  6  8  1  0  0  0
  7 22  1  0  0  0
  8  9  1  0  0  0
  8 23  1  0  0  0
  8 24  1  0  0  0
  9 10  1  0  0  0
  9 25  1  0  0  0
  9 26  1  0  0  0
 10 27  1  0  0  0
 10 39  1  0  0  0
 11 12  1  0  0  0
 11 13  1  0  0  0
 11 28  1  0  0  0
 11 39  1  0  0  0
 12 29  1  0  0  0
 12 30  1  0  0  0
 12 31  1  0  0  0
 13 14  1  0  0  0
 13 32  1  0  0  0
 13 33  1  0  0  0
 14 15  1  0  0  0
 14 16  1  0  0  0
 14 34  1  0  0  0
 15 16  1  0  0  0
 15 35  1  0  0  0
 15 36  1  0  0  0
 16 37  1  0  0  0
 16 38  1  0  0  0
 39 40  1  0  0  0
 39 41  1  0  0  0
M  CHG  1  39   1
M  END
> <energy>
58.7476

> <chiral flag>
0

> <version>
0

> <i_ionizer_Ion_state_n>
1

> <i_ionizer_Tot_Q>
1

> <s_ionizer_Ion_centers>
39

> <s_ionizer_Ion_types>
N5

> <s_ionizer_Ion_ctrs_in>
11

> <r_ionizer_Ionization_penalty>
0.000148807

> <r_ionizer_Ionization_penalty_charging>
0.000148807

> <r_ionizer_Ionization_penalty_neutral>
0

$$$$
ZINC001258451853
                    3D
 Structure written by MMmdl.
 41 43  0  0  1  0            999 V2000
   -5.4077    1.2626   -0.5327 C   0  0  0  0  0  0
   -3.9848    0.8416   -0.2981 C   0  0  0  0  0  0
   -3.1777    0.4297   -1.3788 C   0  0  0  0  0  0
   -1.8483    0.0309   -1.1821 C   0  0  0  0  0  0
   -1.3347    0.0365    0.1033 C   0  0  0  0  0  0
   -2.1318    0.4615    1.1790 C   0  0  0  0  0  0
   -3.4407    0.8837    0.9934 C   0  0  0  0  0  0
   -1.3658    0.3969    2.4642 C   0  0  0  0  0  0
   -0.2709   -0.6051    2.0780 C   0  0  0  0  0  0
    0.0504   -0.3151    0.5909 C   0  0  1  0  0  0
    1.5733   -1.1041   -1.1636 C   0  0  2  0  0  0
    1.6120   -2.3050   -2.1197 C   0  0  0  0  0  0
    3.0170   -0.7913   -0.6918 C   0  0  0  0  0  0
    3.2705    0.6737   -0.4691 C   0  0  0  0  0  0
    3.2747    1.2893    0.9062 C   0  0  0  0  0  0
    4.5702    1.0883    0.1722 C   0  0  0  0  0  0
   -5.4633    2.3441   -0.6864 H   0  0  0  0  0  0
   -6.0349    0.9905    0.3229 H   0  0  0  0  0  0
   -5.8246    0.7572   -1.4104 H   0  0  0  0  0  0
   -3.5882    0.4124   -2.3870 H   0  0  0  0  0  0
   -1.2498   -0.2929   -2.0252 H   0  0  0  0  0  0
   -4.0392    1.2203    1.8370 H   0  0  0  0  0  0
   -0.9412    1.3782    2.7056 H   0  0  0  0  0  0
   -1.9744    0.0304    3.2966 H   0  0  0  0  0  0
   -0.6677   -1.6263    2.1961 H   0  0  0  0  0  0
    0.6092   -0.5224    2.7228 H   0  0  0  0  0  0
    0.6819    0.5789    0.5389 H   0  0  0  0  0  0
    1.1643   -0.2588   -1.7308 H   0  0  0  0  0  0
    2.1859   -2.0553   -3.0198 H   0  0  0  0  0  0
    2.0819   -3.1754   -1.6478 H   0  0  0  0  0  0
    0.6037   -2.5859   -2.4438 H   0  0  0  0  0  0
    3.2658   -1.3717    0.2083 H   0  0  0  0  0  0
    3.7292   -1.1156   -1.4627 H   0  0  0  0  0  0
    2.9244    1.2841   -1.2990 H   0  0  0  0  0  0
    3.0698    0.6562    1.7625 H   0  0  0  0  0  0
    2.8956    2.3019    1.0040 H   0  0  0  0  0  0
    5.0783    1.9558   -0.2372 H   0  0  0  0  0  0
    5.2399    0.3125    0.5345 H   0  0  0  0  0  0
    0.6655   -1.4937   -0.0492 N   0  3  0  0  0  0
    1.2054   -2.0107    0.6547 H   0  0  0  0  0  0
   -0.0780   -2.0965   -0.4208 H   0  0  0  0  0  0
  1  2  1  0  0  0
  1 17  1  0  0  0
  1 18  1  0  0  0
  1 19  1  0  0  0
  2  3  2  0  0  0
  2  7  1  0  0  0
  3  4  1  0  0  0
  3 20  1  0  0  0
  4  5  2  0  0  0
  4 21  1  0  0  0
  5  6  1  0  0  0
  5 10  1  0  0  0
  6  7  2  0  0  0
  6  8  1  0  0  0
  7 22  1  0  0  0
  8  9  1  0  0  0
  8 23  1  0  0  0
  8 24  1  0  0  0
  9 10  1  0  0  0
  9 25  1  0  0  0
  9 26  1  0  0  0
 10 27  1  0  0  0
 10 39  1  0  0  0
 11 12  1  0  0  0
 11 13  1  0  0  0
 11 28  1  0  0  0
 11 39  1  0  0  0
 12 29  1  0  0  0
 12 30  1  0  0  0
 12 31  1  0  0  0
 13 14  1  0  0  0
 13 32  1  0  0  0
 13 33  1  0  0  0
 14 15  1  0  0  0
 14 16  1  0  0  0
 14 34  1  0  0  0
 15 16  1  0  0  0
 15 35  1  0  0  0
 15 36  1  0  0  0
 16 37  1  0  0  0
 16 38  1  0  0  0
 39 40  1  0  0  0
 39 41  1  0  0  0
M  CHG  1  39   1
M  END
> <energy>
54.6064

> <chiral flag>
0

> <version>
0

> <i_ionizer_Ion_state_n>
1

> <i_ionizer_Tot_Q>
1

> <s_ionizer_Ion_centers>
39

> <s_ionizer_Ion_types>
N5

> <s_ionizer_Ion_ctrs_in>
11

> <r_ionizer_Ionization_penalty>
0.000148807

> <r_ionizer_Ionization_penalty_charging>
0.000148807

> <r_ionizer_Ionization_penalty_neutral>
0

$$$$
ZINC001258451854
                    3D
 Structure written by MMmdl.
 41 43  0  0  1  0            999 V2000
   -4.2604    1.5807   -1.9171 C   0  0  0  0  0  0
   -3.3269    0.8241   -1.0172 C   0  0  0  0  0  0
   -2.8405   -0.4409   -1.4088 C   0  0  0  0  0  0
   -1.9408   -1.1477   -0.6052 C   0  0  0  0  0  0
   -1.4899   -0.5602    0.5634 C   0  0  0  0  0  0
   -1.9790    0.6931    0.9604 C   0  0  0  0  0  0
   -2.8953    1.3906    0.1886 C   0  0  0  0  0  0
   -1.4174    1.0916    2.2889 C   0  0  0  0  0  0
   -0.1699    0.1989    2.3597 C   0  0  0  0  0  0
   -0.5295   -1.0933    1.5921 C   0  0  2  0  0  0
    1.3833   -1.4381   -0.0118 C   0  0  2  0  0  0
    1.9357   -2.6945   -0.7060 C   0  0  0  0  0  0
    2.5573   -0.5056    0.3716 C   0  0  0  0  0  0
    2.4623    0.8063   -0.3600 C   0  0  0  0  0  0
    3.6651    1.7048   -0.4573 C   0  0  0  0  0  0
    3.1501    1.0028   -1.6854 C   0  0  0  0  0  0
   -4.8940    2.2613   -1.3396 H   0  0  0  0  0  0
   -4.9235    0.8952   -2.4532 H   0  0  0  0  0  0
   -3.6885    2.1636   -2.6453 H   0  0  0  0  0  0
   -3.1667   -0.8828   -2.3473 H   0  0  0  0  0  0
   -1.5802   -2.1264   -0.9082 H   0  0  0  0  0  0
   -3.2615    2.3621    0.5119 H   0  0  0  0  0  0
   -2.1306    0.8520    3.0860 H   0  0  0  0  0  0
   -1.1567    2.1534    2.3274 H   0  0  0  0  0  0
    0.1340   -0.0020    3.3921 H   0  0  0  0  0  0
    0.6513    0.7377    1.8774 H   0  0  0  0  0  0
   -1.1212   -1.7272    2.2679 H   0  0  0  0  0  0
    0.7491   -0.9460   -0.7548 H   0  0  0  0  0  0
    2.5751   -3.2812   -0.0354 H   0  0  0  0  0  0
    2.5295   -2.4201   -1.5857 H   0  0  0  0  0  0
    1.1195   -3.3413   -1.0496 H   0  0  0  0  0  0
    3.5235   -0.9842    0.1606 H   0  0  0  0  0  0
    2.5641   -0.2983    1.4470 H   0  0  0  0  0  0
    1.4980    1.2830   -0.2240 H   0  0  0  0  0  0
    4.6020    1.3632   -0.0340 H   0  0  0  0  0  0
    3.4980    2.7725   -0.3692 H   0  0  0  0  0  0
    2.6352    1.5951   -2.4345 H   0  0  0  0  0  0
    3.7458    0.1953   -2.0946 H   0  0  0  0  0  0
    0.6045   -1.9700    1.1605 N   0  3  0  0  0  0
    1.2483   -2.0771    1.9531 H   0  0  0  0  0  0
    0.2222   -2.8876    0.9036 H   0  0  0  0  0  0
  1  2  1  0  0  0
  1 17  1  0  0  0
  1 18  1  0  0  0
  1 19  1  0  0  0
  2  3  2  0  0  0
  2  7  1  0  0  0
  3  4  1  0  0  0
  3 20  1  0  0  0
  4  5  2  0  0  0
  4 21  1  0  0  0
  5  6  1  0  0  0
  5 10  1  0  0  0
  6  7  2  0  0  0
  6  8  1  0  0  0
  7 22  1  0  0  0
  8  9  1  0  0  0
  8 23  1  0  0  0
  8 24  1  0  0  0
  9 10  1  0  0  0
  9 25  1  0  0  0
  9 26  1  0  0  0
 10 27  1  0  0  0
 10 39  1  0  0  0
 11 12  1  0  0  0
 11 13  1  0  0  0
 11 28  1  0  0  0
 11 39  1  0  0  0
 12 29  1  0  0  0
 12 30  1  0  0  0
 12 31  1  0  0  0
 13 14  1  0  0  0
 13 32  1  0  0  0
 13 33  1  0  0  0
 14 15  1  0  0  0
 14 16  1  0  0  0
 14 34  1  0  0  0
 15 16  1  0  0  0
 15 35  1  0  0  0
 15 36  1  0  0  0
 16 37  1  0  0  0
 16 38  1  0  0  0
 39 40  1  0  0  0
 39 41  1  0  0  0
M  CHG  1  39   1
M  END
> <energy>
58.1757

> <chiral flag>
0

> <version>
0

> <i_ionizer_Ion_state_n>
1

> <i_ionizer_Tot_Q>
1

> <s_ionizer_Ion_centers>
39

> <s_ionizer_Ion_types>
N5

> <s_ionizer_Ion_ctrs_in>
11

> <r_ionizer_Ionization_penalty>
0.000148807

> <r_ionizer_Ionization_penalty_charging>
0.000148807

> <r_ionizer_Ionization_penalty_neutral>
0

$$$$
ZINC001258452125
                    3D
 Structure written by MMmdl.
 38 40  0  0  1  0            999 V2000
   -1.4290   -1.9440   -1.9264 C   0  0  0  0  0  0
   -1.4881   -0.9196   -0.7878 C   0  0  2  0  0  0
   -2.7215   -0.0038   -0.9940 C   0  0  0  0  0  0
   -3.3708    0.4028    0.3007 C   0  0  0  0  0  0
   -4.2177    1.6487    0.3451 C   0  0  0  0  0  0
   -2.9005    1.6065    1.0730 C   0  0  0  0  0  0
    0.5902   -0.1965    0.3653 C   0  0  1  0  0  0
    0.9573   -1.6047    0.8930 C   0  0  0  0  0  0
    2.2757   -1.4534    1.6651 C   0  0  0  0  0  0
    2.9291   -0.3450    0.8987 C   0  0  0  0  0  0
    4.2717    0.0059    0.8988 C   0  0  0  0  0  0
    4.6748    1.0699    0.0891 C   0  0  0  0  0  0
    3.7313    1.7638   -0.6729 C   0  0  0  0  0  0
    4.1400    2.7817   -1.4454 F   0  0  0  0  0  0
    2.3794    1.4298   -0.6513 C   0  0  0  0  0  0
    1.9796    0.3607    0.1397 C   0  0  0  0  0  0
   -2.3423   -2.5491   -1.9516 H   0  0  0  0  0  0
   -0.5812   -2.6295   -1.7991 H   0  0  0  0  0  0
   -1.3237   -1.4508   -2.9020 H   0  0  0  0  0  0
   -1.6005   -1.4660    0.1554 H   0  0  0  0  0  0
   -3.4874   -0.5390   -1.5737 H   0  0  0  0  0  0
   -2.4574    0.8800   -1.5886 H   0  0  0  0  0  0
   -3.7429   -0.4541    0.8538 H   0  0  0  0  0  0
   -4.2811    2.2752   -0.5395 H   0  0  0  0  0  0
   -5.1287    1.6180    0.9324 H   0  0  0  0  0  0
   -2.0934    2.2075    0.6724 H   0  0  0  0  0  0
   -2.9149    1.5443    2.1561 H   0  0  0  0  0  0
    0.1045    0.3885    1.1577 H   0  0  0  0  0  0
    0.1719   -2.0432    1.5192 H   0  0  0  0  0  0
    1.1265   -2.2961    0.0541 H   0  0  0  0  0  0
    2.1051   -1.1477    2.6994 H   0  0  0  0  0  0
    2.8576   -2.3779    1.6388 H   0  0  0  0  0  0
    4.9973   -0.5342    1.5006 H   0  0  0  0  0  0
    5.7161    1.3710    0.0476 H   0  0  0  0  0  0
    1.6798    1.9948   -1.2534 H   0  0  0  0  0  0
   -0.2069   -0.1571   -0.8867 N   0  3  0  0  0  0
    0.3557   -0.5596   -1.6454 H   0  0  0  0  0  0
   -0.4250    0.8222   -1.1048 H   0  0  0  0  0  0
  1  2  1  0  0  0
  1 17  1  0  0  0
  1 18  1  0  0  0
  1 19  1  0  0  0
  2  3  1  0  0  0
  2 20  1  0  0  0
  2 36  1  0  0  0
  3  4  1  0  0  0
  3 21  1  0  0  0
  3 22  1  0  0  0
  4  5  1  0  0  0
  4  6  1  0  0  0
  4 23  1  0  0  0
  5  6  1  0  0  0
  5 24  1  0  0  0
  5 25  1  0  0  0
  6 26  1  0  0  0
  6 27  1  0  0  0
  7  8  1  0  0  0
  7 16  1  0  0  0
  7 28  1  0  0  0
  7 36  1  0  0  0
  8  9  1  0  0  0
  8 29  1  0  0  0
  8 30  1  0  0  0
  9 10  1  0  0  0
  9 31  1  0  0  0
  9 32  1  0  0  0
 10 11  2  0  0  0
 10 16  1  0  0  0
 11 12  1  0  0  0
 11 33  1  0  0  0
 12 13  2  0  0  0
 12 34  1  0  0  0
 13 14  1  0  0  0
 13 15  1  0  0  0
 15 16  2  0  0  0
 15 35  1  0  0  0
 36 37  1  0  0  0
 36 38  1  0  0  0
M  CHG  1  36   1
M  END
> <energy>
48.5516

> <chiral flag>
0

> <version>
0

> <i_ionizer_Ion_state_n>
1

> <i_ionizer_Tot_Q>
1

> <s_ionizer_Ion_centers>
36

> <s_ionizer_Ion_types>
N5

> <s_ionizer_Ion_ctrs_in>
7

> <r_ionizer_Ionization_penalty>
0.000148807

> <r_ionizer_Ionization_penalty_charging>
0.000148807

> <r_ionizer_Ionization_penalty_neutral>
0

$$$$
ZINC001258452126
                    3D
 Structure written by MMmdl.
 38 40  0  0  1  0            999 V2000
   -0.4948   -1.7712   -1.2348 C   0  0  0  0  0  0
   -0.9671   -0.7190   -0.2317 C   0  0  1  0  0  0
   -2.5007   -0.8909   -0.0209 C   0  0  0  0  0  0
   -3.2372    0.4191   -0.1080 C   0  0  0  0  0  0
   -4.6398    0.5282    0.4418 C   0  0  0  0  0  0
   -3.5027    1.2455    1.1204 C   0  0  0  0  0  0
    1.1489   -0.5794    1.1634 C   0  0  1  0  0  0
    1.9958   -1.8154    0.7863 C   0  0  0  0  0  0
    3.2140   -1.3280   -0.0104 C   0  0  0  0  0  0
    2.8717    0.0867   -0.3513 C   0  0  0  0  0  0
    3.5867    0.9434   -1.1794 C   0  0  0  0  0  0
    3.1644    2.2709   -1.2873 C   0  0  0  0  0  0
    2.0534    2.7111   -0.5614 C   0  0  0  0  0  0
    1.6806    3.9954   -0.6491 F   0  0  0  0  0  0
    1.3305    1.8490    0.2580 C   0  0  0  0  0  0
    1.7350    0.5233    0.3349 C   0  0  0  0  0  0
   -1.0992   -1.7437   -2.1478 H   0  0  0  0  0  0
   -0.5672   -2.7838   -0.8231 H   0  0  0  0  0  0
    0.5337   -1.5867   -1.5592 H   0  0  0  0  0  0
   -0.7874    0.2628   -0.6821 H   0  0  0  0  0  0
   -2.9237   -1.5454   -0.7948 H   0  0  0  0  0  0
   -2.7101   -1.3898    0.9349 H   0  0  0  0  0  0
   -3.0435    0.9305   -1.0456 H   0  0  0  0  0  0
   -5.0707   -0.3293    0.9459 H   0  0  0  0  0  0
   -5.3574    1.1238   -0.1128 H   0  0  0  0  0  0
   -3.4534    2.3237    1.0177 H   0  0  0  0  0  0
   -3.1773    0.8724    2.0830 H   0  0  0  0  0  0
    1.3893   -0.3502    2.2095 H   0  0  0  0  0  0
    1.4469   -2.5540    0.1955 H   0  0  0  0  0  0
    2.3092   -2.3662    1.6836 H   0  0  0  0  0  0
    4.1167   -1.3612    0.6066 H   0  0  0  0  0  0
    3.3612   -1.9362   -0.9082 H   0  0  0  0  0  0
    4.4578    0.6000   -1.7330 H   0  0  0  0  0  0
    3.6951    2.9734   -1.9212 H   0  0  0  0  0  0
    0.4761    2.2165    0.8153 H   0  0  0  0  0  0
   -0.3382   -0.7818    1.1472 N   0  3  0  0  0  0
   -0.7671   -0.0525    1.7289 H   0  0  0  0  0  0
   -0.5404   -1.7042    1.5503 H   0  0  0  0  0  0
  1  2  1  0  0  0
  1 17  1  0  0  0
  1 18  1  0  0  0
  1 19  1  0  0  0
  2  3  1  0  0  0
  2 20  1  0  0  0
  2 36  1  0  0  0
  3  4  1  0  0  0
  3 21  1  0  0  0
  3 22  1  0  0  0
  4  5  1  0  0  0
  4  6  1  0  0  0
  4 23  1  0  0  0
  5  6  1  0  0  0
  5 24  1  0  0  0
  5 25  1  0  0  0
  6 26  1  0  0  0
  6 27  1  0  0  0
  7  8  1  0  0  0
  7 16  1  0  0  0
  7 28  1  0  0  0
  7 36  1  0  0  0
  8  9  1  0  0  0
  8 29  1  0  0  0
  8 30  1  0  0  0
  9 10  1  0  0  0
  9 31  1  0  0  0
  9 32  1  0  0  0
 10 11  2  0  0  0
 10 16  1  0  0  0
 11 12  1  0  0  0
 11 33  1  0  0  0
 12 13  2  0  0  0
 12 34  1  0  0  0
 13 14  1  0  0  0
 13 15  1  0  0  0
 15 16  2  0  0  0
 15 35  1  0  0  0
 36 37  1  0  0  0
 36 38  1  0  0  0
M  CHG  1  36   1
M  END
> <energy>
53.6807

> <chiral flag>
0

> <version>
0

> <i_ionizer_Ion_state_n>
1

> <i_ionizer_Tot_Q>
1

> <s_ionizer_Ion_centers>
36

> <s_ionizer_Ion_types>
N5

> <s_ionizer_Ion_ctrs_in>
7

> <r_ionizer_Ionization_penalty>
0.000148807

> <r_ionizer_Ionization_penalty_charging>
0.000148807

> <r_ionizer_Ionization_penalty_neutral>
0

$$$$
ZINC001258452127
                    3D
 Structure written by MMmdl.
 38 40  0  0  1  0            999 V2000
   -1.6314    1.2079   -2.1758 C   0  0  0  0  0  0
   -1.3567    0.2196   -1.0343 C   0  0  2  0  0  0
   -2.6996   -0.4070   -0.5896 C   0  0  0  0  0  0
   -2.5427   -1.6007    0.3097 C   0  0  0  0  0  0
   -3.6665   -2.6010    0.4207 C   0  0  0  0  0  0
   -2.3878   -2.9823   -0.2725 C   0  0  0  0  0  0
    0.4153    0.2393    0.6694 C   0  0  2  0  0  0
    0.5808    0.6780    2.1427 C   0  0  0  0  0  0
    2.0636    0.4857    2.4874 C   0  0  0  0  0  0
    2.6997    0.7684    1.1616 C   0  0  0  0  0  0
    4.0287    1.0821    0.9125 C   0  0  0  0  0  0
    4.4200    1.2825   -0.4114 C   0  0  0  0  0  0
    3.4893    1.1475   -1.4462 C   0  0  0  0  0  0
    3.8886    1.3364   -2.7120 F   0  0  0  0  0  0
    2.1596    0.8119   -1.1961 C   0  0  0  0  0  0
    1.7645    0.6350    0.1201 C   0  0  0  0  0  0
   -0.7083    1.6849   -2.5225 H   0  0  0  0  0  0
   -2.3257    1.9985   -1.8688 H   0  0  0  0  0  0
   -2.0740    0.6900   -3.0339 H   0  0  0  0  0  0
   -0.6970   -0.5620   -1.4308 H   0  0  0  0  0  0
   -3.3147    0.3430   -0.0739 H   0  0  0  0  0  0
   -3.2652   -0.7036   -1.4835 H   0  0  0  0  0  0
   -2.0250   -1.3582    1.2300 H   0  0  0  0  0  0
   -4.5530   -2.4499   -0.1851 H   0  0  0  0  0  0
   -3.8660   -3.0372    1.3933 H   0  0  0  0  0  0
   -2.4144   -3.1020   -1.3506 H   0  0  0  0  0  0
   -1.7224   -3.6736    0.2332 H   0  0  0  0  0  0
    0.3119   -0.8524    0.6329 H   0  0  0  0  0  0
   -0.0752    0.1199    2.8199 H   0  0  0  0  0  0
    0.3306    1.7437    2.2617 H   0  0  0  0  0  0
    2.3865    1.1857    3.2631 H   0  0  0  0  0  0
    2.2729   -0.5432    2.7954 H   0  0  0  0  0  0
    4.7469    1.1710    1.7215 H   0  0  0  0  0  0
    5.4482    1.5343   -0.6506 H   0  0  0  0  0  0
    1.4709    0.6961   -2.0242 H   0  0  0  0  0  0
   -0.7347    0.9667    0.0934 N   0  3  0  0  0  0
   -0.4119    1.8786   -0.2506 H   0  0  0  0  0  0
   -1.4393    1.1075    0.8269 H   0  0  0  0  0  0
  1  2  1  0  0  0
  1 17  1  0  0  0
  1 18  1  0  0  0
  1 19  1  0  0  0
  2  3  1  0  0  0
  2 20  1  0  0  0
  2 36  1  0  0  0
  3  4  1  0  0  0
  3 21  1  0  0  0
  3 22  1  0  0  0
  4  5  1  0  0  0
  4  6  1  0  0  0
  4 23  1  0  0  0
  5  6  1  0  0  0
  5 24  1  0  0  0
  5 25  1  0  0  0
  6 26  1  0  0  0
  6 27  1  0  0  0
  7  8  1  0  0  0
  7 16  1  0  0  0
  7 28  1  0  0  0
  7 36  1  0  0  0
  8  9  1  0  0  0
  8 29  1  0  0  0
  8 30  1  0  0  0
  9 10  1  0  0  0
  9 31  1  0  0  0
  9 32  1  0  0  0
 10 11  2  0  0  0
 10 16  1  0  0  0
 11 12  1  0  0  0
 11 33  1  0  0  0
 12 13  2  0  0  0
 12 34  1  0  0  0
 13 14  1  0  0  0
 13 15  1  0  0  0
 15 16  2  0  0  0
 15 35  1  0  0  0
 36 37  1  0  0  0
 36 38  1  0  0  0
M  CHG  1  36   1
M  END
> <energy>
45.8378

> <chiral flag>
0

> <version>
0

> <i_ionizer_Ion_state_n>
1

> <i_ionizer_Tot_Q>
1

> <s_ionizer_Ion_centers>
36

> <s_ionizer_Ion_types>
N5

> <s_ionizer_Ion_ctrs_in>
7

> <r_ionizer_Ionization_penalty>
0.000148807

> <r_ionizer_Ionization_penalty_charging>
0.000148807

> <r_ionizer_Ionization_penalty_neutral>
0

$$$$
ZINC001258452128
                    3D
 Structure written by MMmdl.
 38 40  0  0  1  0            999 V2000
   -1.2713   -1.9511    0.8228 C   0  0  0  0  0  0
   -1.5921   -0.4602    0.6191 C   0  0  1  0  0  0
   -1.1789    0.3476    1.8712 C   0  0  0  0  0  0
   -1.4003    1.8408    1.8290 C   0  0  0  0  0  0
   -2.2182    2.4894    2.9252 C   0  0  0  0  0  0
   -2.7138    2.5111    1.5097 C   0  0  0  0  0  0
    0.1914    0.5401   -0.8872 C   0  0  2  0  0  0
    0.3148    0.9126   -2.3910 C   0  0  0  0  0  0
    0.9226   -0.3050   -3.1046 C   0  0  0  0  0  0
    1.8068   -0.8408   -2.0250 C   0  0  0  0  0  0
    2.9078   -1.6766   -2.1594 C   0  0  0  0  0  0
    3.6145   -2.0366   -1.0140 C   0  0  0  0  0  0
    3.2082   -1.5590    0.2334 C   0  0  0  0  0  0
    3.8996   -1.9134    1.3270 F   0  0  0  0  0  0
    2.1088   -0.7091    0.3646 C   0  0  0  0  0  0
    1.3870   -0.3724   -0.7686 C   0  0  0  0  0  0
   -1.8053   -2.3431    1.6935 H   0  0  0  0  0  0
   -0.2011   -2.1218    0.9744 H   0  0  0  0  0  0
   -1.5806   -2.5625   -0.0370 H   0  0  0  0  0  0
   -2.6873   -0.3975    0.5568 H   0  0  0  0  0  0
   -1.7217   -0.0626    2.7321 H   0  0  0  0  0  0
   -0.1226    0.1687    2.1014 H   0  0  0  0  0  0
   -0.4910    2.3632    1.5487 H   0  0  0  0  0  0
   -2.7518    1.8653    3.6336 H   0  0  0  0  0  0
   -1.8599    3.4208    3.3519 H   0  0  0  0  0  0
   -2.6872    3.4639    0.9848 H   0  0  0  0  0  0
   -3.5690    1.8979    1.2556 H   0  0  0  0  0  0
    0.3251    1.4469   -0.2926 H   0  0  0  0  0  0
    1.0010    1.7649   -2.4910 H   0  0  0  0  0  0
   -0.6345    1.2177   -2.8457 H   0  0  0  0  0  0
    1.4836   -0.0031   -3.9913 H   0  0  0  0  0  0
    0.1633   -1.0415   -3.3806 H   0  0  0  0  0  0
    3.2205   -2.0438   -3.1318 H   0  0  0  0  0  0
    4.4869   -2.6813   -1.0764 H   0  0  0  0  0  0
    1.8526   -0.3290    1.3444 H   0  0  0  0  0  0
   -1.1766   -0.0566   -0.7696 N   0  3  0  0  0  0
   -1.2088   -0.8926   -1.3648 H   0  0  0  0  0  0
   -1.8533    0.6347   -1.1137 H   0  0  0  0  0  0
  1  2  1  0  0  0
  1 17  1  0  0  0
  1 18  1  0  0  0
  1 19  1  0  0  0
  2  3  1  0  0  0
  2 20  1  0  0  0
  2 36  1  0  0  0
  3  4  1  0  0  0
  3 21  1  0  0  0
  3 22  1  0  0  0
  4  5  1  0  0  0
  4  6  1  0  0  0
  4 23  1  0  0  0
  5  6  1  0  0  0
  5 24  1  0  0  0
  5 25  1  0  0  0
  6 26  1  0  0  0
  6 27  1  0  0  0
  7  8  1  0  0  0
  7 16  1  0  0  0
  7 28  1  0  0  0
  7 36  1  0  0  0
  8  9  1  0  0  0
  8 29  1  0  0  0
  8 30  1  0  0  0
  9 10  1  0  0  0
  9 31  1  0  0  0
  9 32  1  0  0  0
 10 11  2  0  0  0
 10 16  1  0  0  0
 11 12  1  0  0  0
 11 33  1  0  0  0
 12 13  2  0  0  0
 12 34  1  0  0  0
 13 14  1  0  0  0
 13 15  1  0  0  0
 15 16  2  0  0  0
 15 35  1  0  0  0
 36 37  1  0  0  0
 36 38  1  0  0  0
M  CHG  1  36   1
M  END
> <energy>
53.5956

> <chiral flag>
0

> <version>
0

> <i_ionizer_Ion_state_n>
1

> <i_ionizer_Tot_Q>
1

> <s_ionizer_Ion_centers>
36

> <s_ionizer_Ion_types>
N5

> <s_ionizer_Ion_ctrs_in>
7

> <r_ionizer_Ionization_penalty>
0.000148807

> <r_ionizer_Ionization_penalty_charging>
0.000148807

> <r_ionizer_Ionization_penalty_neutral>
0

$$$$
ZINC001258452834
                    3D
 Structure written by MMmdl.
 43 44  0  0  1  0            999 V2000
   -1.8731   -0.0646    1.9262 C   0  0  0  0  0  0
   -0.9351    0.3348    0.7778 C   0  0  2  0  0  0
   -1.5114    1.5697    0.0257 C   0  0  0  0  0  0
   -2.5724    1.2575   -0.9997 C   0  0  0  0  0  0
   -3.6740    2.2499   -1.2902 C   0  0  0  0  0  0
   -3.9948    0.9489   -0.6125 C   0  0  0  0  0  0
    0.3516   -1.7485    0.0406 C   0  0  0  0  0  0
    0.8584   -1.9523    1.4785 C   0  0  0  0  0  0
   -0.2239   -3.1124   -0.4215 C   0  0  0  0  0  0
    1.5393   -1.4252   -0.9260 C   0  0  0  0  0  0
    2.4037   -0.2249   -0.6030 C   0  0  0  0  0  0
    3.5738   -0.3641    0.1573 C   0  0  0  0  0  0
    4.3747    0.7447    0.4465 C   0  0  0  0  0  0
    4.0076    2.0045   -0.0198 C   0  0  0  0  0  0
    2.8559    2.1449   -0.7853 C   0  0  0  0  0  0
    2.5077    3.3557   -1.2417 F   0  0  0  0  0  0
    2.0621    1.0440   -1.0866 C   0  0  0  0  0  0
   -1.4129   -0.8018    2.5919 H   0  0  0  0  0  0
   -2.1294    0.8042    2.5449 H   0  0  0  0  0  0
   -2.8090   -0.5004    1.5599 H   0  0  0  0  0  0
    0.0145    0.6642    1.2138 H   0  0  0  0  0  0
   -1.8831    2.3043    0.7523 H   0  0  0  0  0  0
   -0.6914    2.0688   -0.5090 H   0  0  0  0  0  0
   -2.1513    0.7413   -1.8598 H   0  0  0  0  0  0
   -3.7277    3.1590   -0.7017 H   0  0  0  0  0  0
   -3.9820    2.3753   -2.3235 H   0  0  0  0  0  0
   -4.5048    0.1779   -1.1810 H   0  0  0  0  0  0
   -4.2831    0.9895    0.4307 H   0  0  0  0  0  0
    1.2387   -1.0324    1.9327 H   0  0  0  0  0  0
    1.6811   -2.6802    1.4967 H   0  0  0  0  0  0
    0.0746   -2.3539    2.1286 H   0  0  0  0  0  0
   -0.5741   -3.0711   -1.4608 H   0  0  0  0  0  0
   -1.0722   -3.4141    0.2070 H   0  0  0  0  0  0
    0.5322   -3.9048   -0.3586 H   0  0  0  0  0  0
    2.2028   -2.3005   -0.9907 H   0  0  0  0  0  0
    1.1585   -1.3056   -1.9498 H   0  0  0  0  0  0
    3.8778   -1.3423    0.5230 H   0  0  0  0  0  0
    5.2813    0.6252    1.0341 H   0  0  0  0  0  0
    4.6144    2.8777    0.1982 H   0  0  0  0  0  0
    1.1765    1.1842   -1.6981 H   0  0  0  0  0  0
   -0.7940   -0.7865   -0.2191 N   0  3  0  0  0  0
   -1.6677   -1.3257   -0.2148 H   0  0  0  0  0  0
   -0.6536   -0.3696   -1.1468 H   0  0  0  0  0  0
  1  2  1  0  0  0
  1 18  1  0  0  0
  1 19  1  0  0  0
  1 20  1  0  0  0
  2  3  1  0  0  0
  2 21  1  0  0  0
  2 41  1  0  0  0
  3  4  1  0  0  0
  3 22  1  0  0  0
  3 23  1  0  0  0
  4  5  1  0  0  0
  4  6  1  0  0  0
  4 24  1  0  0  0
  5  6  1  0  0  0
  5 25  1  0  0  0
  5 26  1  0  0  0
  6 27  1  0  0  0
  6 28  1  0  0  0
  7  8  1  0  0  0
  7  9  1  0  0  0
  7 10  1  0  0  0
  7 41  1  0  0  0
  8 29  1  0  0  0
  8 30  1  0  0  0
  8 31  1  0  0  0
  9 32  1  0  0  0
  9 33  1  0  0  0
  9 34  1  0  0  0
 10 11  1  0  0  0
 10 35  1  0  0  0
 10 36  1  0  0  0
 11 12  2  0  0  0
 11 17  1  0  0  0
 12 13  1  0  0  0
 12 37  1  0  0  0
 13 14  2  0  0  0
 13 38  1  0  0  0
 14 15  1  0  0  0
 14 39  1  0  0  0
 15 16  1  0  0  0
 15 17  2  0  0  0
 17 40  1  0  0  0
 41 42  1  0  0  0
 41 43  1  0  0  0
M  CHG  1  41   1
M  END
> <energy>
72.5009

> <chiral flag>
0

> <version>
0

> <i_ionizer_Ion_state_n>
1

> <i_ionizer_Tot_Q>
1

> <s_ionizer_Ion_centers>
41

> <s_ionizer_Ion_types>
N5

> <s_ionizer_Ion_ctrs_in>
7

> <r_ionizer_Ionization_penalty>
0.000148807

> <r_ionizer_Ionization_penalty_charging>
0.000148807

> <r_ionizer_Ionization_penalty_neutral>
0

$$$$
ZINC001258452835
                    3D
 Structure written by MMmdl.
 43 44  0  0  1  0            999 V2000
   -1.3757   -2.6532    0.3032 C   0  0  0  0  0  0
   -0.7073   -1.3462    0.7875 C   0  0  3  0  0  0
   -2.0252   -0.6305    1.3718 C   0  0  0  0  0  0
   -2.5915    0.5017    0.5369 C   0  0  0  0  0  0
   -4.0704    0.5491    0.2364 C   0  0  0  0  0  0
   -3.0847    0.3075   -0.8711 C   0  0  0  0  0  0
    1.6962   -1.2639   -0.0084 C   0  0  0  0  0  0
    2.3513   -2.5954   -0.4438 C   0  0  0  0  0  0
    1.9669   -1.0796    1.4999 C   0  0  0  0  0  0
    2.3676   -0.1235   -0.8399 C   0  0  0  0  0  0
    1.7915    1.2721   -0.6948 C   0  0  0  0  0  0
    2.2114    2.1247    0.3395 C   0  0  0  0  0  0
    1.6865    3.4174    0.4637 C   0  0  0  0  0  0
    0.7456    3.8733   -0.4542 C   0  0  0  0  0  0
    0.3355    3.0385   -1.4846 C   0  0  0  0  0  0
   -0.5645    3.4797   -2.3720 F   0  0  0  0  0  0
    0.8494    1.7494   -1.6166 C   0  0  0  0  0  0
   -1.9201   -3.1330    1.1279 H   0  0  0  0  0  0
   -2.0796   -2.5064   -0.5264 H   0  0  0  0  0  0
   -0.6688   -3.4457    0.0037 H   0  0  0  0  0  0
   -0.5272   -0.3027    0.5092 H   0  0  0  0  0  0
   -1.7479   -0.1986    2.3448 H   0  0  0  0  0  0
   -2.8226   -1.3439    1.6062 H   0  0  0  0  0  0
   -2.0979    1.4426    0.7649 H   0  0  0  0  0  0
   -4.7040   -0.2785    0.5347 H   0  0  0  0  0  0
   -4.5740    1.5087    0.2496 H   0  0  0  0  0  0
   -3.0661   -0.6766   -1.3180 H   0  0  0  0  0  0
   -2.9168    1.1151   -1.5747 H   0  0  0  0  0  0
    3.4322   -2.5887   -0.2706 H   0  0  0  0  0  0
    2.1931   -2.7929   -1.5115 H   0  0  0  0  0  0
    1.9347   -3.4432    0.1134 H   0  0  0  0  0  0
    1.4820   -0.1850    1.9059 H   0  0  0  0  0  0
    3.0408   -0.9846    1.6919 H   0  0  0  0  0  0
    1.6139   -1.9391    2.0827 H   0  0  0  0  0  0
    2.3509   -0.3929   -1.9074 H   0  0  0  0  0  0
    3.4359   -0.0737   -0.5858 H   0  0  0  0  0  0
    2.9553    1.7952    1.0618 H   0  0  0  0  0  0
    2.0142    4.0667    1.2713 H   0  0  0  0  0  0
    0.3331    4.8749   -0.3758 H   0  0  0  0  0  0
    0.5095    1.1351   -2.4442 H   0  0  0  0  0  0
    0.2520   -1.4307   -0.4025 N   0  3  0  0  0  0
    0.1391   -2.3482   -0.8494 H   0  0  0  0  0  0
    0.0086   -0.6915   -1.0723 H   0  0  0  0  0  0
  1  2  1  0  0  0
  1 18  1  0  0  0
  1 19  1  0  0  0
  1 20  1  0  0  0
  2  3  1  0  0  0
  2 21  1  0  0  0
  2 41  1  0  0  0
  3  4  1  0  0  0
  3 22  1  0  0  0
  3 23  1  0  0  0
  4  5  1  0  0  0
  4  6  1  0  0  0
  4 24  1  0  0  0
  5  6  1  0  0  0
  5 25  1  0  0  0
  5 26  1  0  0  0
  6 27  1  0  0  0
  6 28  1  0  0  0
  7  8  1  0  0  0
  7  9  1  0  0  0
  7 10  1  0  0  0
  7 41  1  0  0  0
  8 29  1  0  0  0
  8 30  1  0  0  0
  8 31  1  0  0  0
  9 32  1  0  0  0
  9 33  1  0  0  0
  9 34  1  0  0  0
 10 11  1  0  0  0
 10 35  1  0  0  0
 10 36  1  0  0  0
 11 12  2  0  0  0
 11 17  1  0  0  0
 12 13  1  0  0  0
 12 37  1  0  0  0
 13 14  2  0  0  0
 13 38  1  0  0  0
 14 15  1  0  0  0
 14 39  1  0  0  0
 15 16  1  0  0  0
 15 17  2  0  0  0
 17 40  1  0  0  0
 41 42  1  0  0  0
 41 43  1  0  0  0
M  CHG  1  41   1
M  END
> <energy>
160.451

> <chiral flag>
0

> <version>
0

> <i_ionizer_Ion_state_n>
1

> <i_ionizer_Tot_Q>
1

> <s_ionizer_Ion_centers>
41

> <s_ionizer_Ion_types>
N5

> <s_ionizer_Ion_ctrs_in>
7

> <r_ionizer_Ionization_penalty>
0.000148807

> <r_ionizer_Ionization_penalty_charging>
0.000148807

> <r_ionizer_Ionization_penalty_neutral>
0

$$$$
ZINC001258452954
                    3D
 Structure written by MMmdl.
 41 43  0  0  1  0            999 V2000
    0.4751   -0.6457   -1.7562 C   0  0  0  0  0  0
    1.5503    0.0376   -0.9072 C   0  0  2  0  0  0
    2.5816   -0.9909   -0.3746 C   0  0  0  0  0  0
    2.0066   -2.1253    0.4321 C   0  0  0  0  0  0
    1.6291   -1.9659    1.8821 C   0  0  0  0  0  0
    2.8444   -2.7671    1.5106 C   0  0  0  0  0  0
    0.1138    1.9731   -0.0942 C   0  0  0  0  0  0
   -1.1852    2.0276    0.7174 C   0  0  0  0  0  0
   -2.0719    0.8327    0.4609 C   0  0  0  0  0  0
   -2.0329   -0.2755    1.3231 C   0  0  0  0  0  0
   -2.8231   -1.4001    1.0780 C   0  0  0  0  0  0
   -3.6618   -1.4293   -0.0344 C   0  0  0  0  0  0
   -3.7013   -0.3335   -0.8890 C   0  0  0  0  0  0
   -4.5011   -0.3669   -1.9641 F   0  0  0  0  0  0
   -2.9197    0.7935   -0.6532 C   0  0  0  0  0  0
    0.8481    3.2995   -0.2379 C   0  0  0  0  0  0
    0.1460    2.7125   -1.4174 C   0  0  0  0  0  0
   -0.1656   -1.2968   -1.1530 H   0  0  0  0  0  0
   -0.1692    0.0812   -2.2584 H   0  0  0  0  0  0
    0.9402   -1.2601   -2.5356 H   0  0  0  0  0  0
    2.1212    0.7187   -1.5505 H   0  0  0  0  0  0
    3.3475   -0.4637    0.2098 H   0  0  0  0  0  0
    3.1111   -1.4281   -1.2303 H   0  0  0  0  0  0
    1.3974   -2.7886   -0.1715 H   0  0  0  0  0  0
    1.7776   -1.0054    2.3593 H   0  0  0  0  0  0
    0.7521   -2.4977    2.2338 H   0  0  0  0  0  0
    2.7934   -3.8449    1.6214 H   0  0  0  0  0  0
    3.8167   -2.3458    1.7432 H   0  0  0  0  0  0
   -1.7524    2.9415    0.4944 H   0  0  0  0  0  0
   -0.9418    2.0878    1.7866 H   0  0  0  0  0  0
   -1.3645   -0.2716    2.1825 H   0  0  0  0  0  0
   -2.7728   -2.2548    1.7467 H   0  0  0  0  0  0
   -4.2789   -2.2972   -0.2420 H   0  0  0  0  0  0
   -2.9707    1.6245   -1.3477 H   0  0  0  0  0  0
    0.4195    4.1829    0.2223 H   0  0  0  0  0  0
    1.9320    3.3041   -0.2558 H   0  0  0  0  0  0
   -0.7617    3.1987   -1.7597 H   0  0  0  0  0  0
    0.7531    2.3492   -2.2348 H   0  0  0  0  0  0
    1.0034    0.7938    0.2717 N   0  3  0  0  0  0
    0.4537    0.1421    0.8437 H   0  0  0  0  0  0
    1.7954    1.1473    0.8213 H   0  0  0  0  0  0
  1  2  1  0  0  0
  1 18  1  0  0  0
  1 19  1  0  0  0
  1 20  1  0  0  0
  2  3  1  0  0  0
  2 21  1  0  0  0
  2 39  1  0  0  0
  3  4  1  0  0  0
  3 22  1  0  0  0
  3 23  1  0  0  0
  4  5  1  0  0  0
  4  6  1  0  0  0
  4 24  1  0  0  0
  5  6  1  0  0  0
  5 25  1  0  0  0
  5 26  1  0  0  0
  6 27  1  0  0  0
  6 28  1  0  0  0
  7  8  1  0  0  0
  7 16  1  0  0  0
  7 17  1  0  0  0
  7 39  1  0  0  0
  8  9  1  0  0  0
  8 29  1  0  0  0
  8 30  1  0  0  0
  9 10  2  0  0  0
  9 15  1  0  0  0
 10 11  1  0  0  0
 10 31  1  0  0  0
 11 12  2  0  0  0
 11 32  1  0  0  0
 12 13  1  0  0  0
 12 33  1  0  0  0
 13 14  1  0  0  0
 13 15  2  0  0  0
 15 34  1  0  0  0
 16 17  1  0  0  0
 16 35  1  0  0  0
 16 36  1  0  0  0
 17 37  1  0  0  0
 17 38  1  0  0  0
 39 40  1  0  0  0
 39 41  1  0  0  0
M  CHG  1  39   1
M  END
> <energy>
64.6333

> <chiral flag>
0

> <version>
0

> <i_ionizer_Ion_state_n>
1

> <i_ionizer_Tot_Q>
1

> <s_ionizer_Ion_centers>
39

> <s_ionizer_Ion_types>
N5

> <s_ionizer_Ion_ctrs_in>
7

> <r_ionizer_Ionization_penalty>
0.000148807

> <r_ionizer_Ionization_penalty_charging>
0.000148807

> <r_ionizer_Ionization_penalty_neutral>
0

$$$$
ZINC001258452955
                    3D
 Structure written by MMmdl.
 41 43  0  0  1  0            999 V2000
   -1.8677    0.0357   -2.0135 C   0  0  0  0  0  0
   -1.9182    0.6441   -0.6076 C   0  0  1  0  0  0
   -1.6284   -0.3792    0.5137 C   0  0  0  0  0  0
   -2.6006   -1.5290    0.5421 C   0  0  0  0  0  0
   -3.9022   -1.4068    1.2902 C   0  0  0  0  0  0
   -2.8143   -2.3007    1.8201 C   0  0  0  0  0  0
    0.3135    1.8117   -0.1499 C   0  0  0  0  0  0
    1.3046    1.3125   -1.2125 C   0  0  0  0  0  0
    2.2247    0.2052   -0.7490 C   0  0  0  0  0  0
    1.8942   -1.1435   -0.9481 C   0  0  0  0  0  0
    2.7473   -2.1663   -0.5208 C   0  0  0  0  0  0
    3.9447   -1.8496    0.1148 C   0  0  0  0  0  0
    4.2792   -0.5165    0.3151 C   0  0  0  0  0  0
    5.4268   -0.2107    0.9343 F   0  0  0  0  0  0
    3.4387    0.5081   -0.1147 C   0  0  0  0  0  0
    0.6288    1.7806    1.3423 C   0  0  0  0  0  0
    0.7913    3.0584    0.5938 C   0  0  0  0  0  0
   -2.6954   -0.6664   -2.1595 H   0  0  0  0  0  0
   -1.9733    0.8072   -2.7855 H   0  0  0  0  0  0
   -0.9372   -0.5032   -2.1989 H   0  0  0  0  0  0
   -2.9564    0.9768   -0.4693 H   0  0  0  0  0  0
   -1.6685    0.1333    1.4818 H   0  0  0  0  0  0
   -0.6199   -0.7910    0.4097 H   0  0  0  0  0  0
   -2.5808   -2.1186   -0.3664 H   0  0  0  0  0  0
   -4.7810   -1.8762    0.8624 H   0  0  0  0  0  0
   -4.1078   -0.4875    1.8276 H   0  0  0  0  0  0
   -2.2824   -1.9872    2.7104 H   0  0  0  0  0  0
   -2.9661   -3.3722    1.7524 H   0  0  0  0  0  0
    0.7734    0.9824   -2.1124 H   0  0  0  0  0  0
    1.9185    2.1518   -1.5666 H   0  0  0  0  0  0
    0.9667   -1.4150   -1.4432 H   0  0  0  0  0  0
    2.4747   -3.2058   -0.6832 H   0  0  0  0  0  0
    4.6179   -2.6309    0.4530 H   0  0  0  0  0  0
    3.7359    1.5366    0.0643 H   0  0  0  0  0  0
    1.5150    1.2763    1.7030 H   0  0  0  0  0  0
   -0.1907    1.7331    2.0513 H   0  0  0  0  0  0
    1.7991    3.4217    0.4322 H   0  0  0  0  0  0
    0.0751    3.8500    0.7837 H   0  0  0  0  0  0
   -1.1530    1.9464   -0.5467 N   0  3  0  0  0  0
   -1.1937    2.3836   -1.4748 H   0  0  0  0  0  0
   -1.6146    2.5554    0.1391 H   0  0  0  0  0  0
  1  2  1  0  0  0
  1 18  1  0  0  0
  1 19  1  0  0  0
  1 20  1  0  0  0
  2  3  1  0  0  0
  2 21  1  0  0  0
  2 39  1  0  0  0
  3  4  1  0  0  0
  3 22  1  0  0  0
  3 23  1  0  0  0
  4  5  1  0  0  0
  4  6  1  0  0  0
  4 24  1  0  0  0
  5  6  1  0  0  0
  5 25  1  0  0  0
  5 26  1  0  0  0
  6 27  1  0  0  0
  6 28  1  0  0  0
  7  8  1  0  0  0
  7 16  1  0  0  0
  7 17  1  0  0  0
  7 39  1  0  0  0
  8  9  1  0  0  0
  8 29  1  0  0  0
  8 30  1  0  0  0
  9 10  2  0  0  0
  9 15  1  0  0  0
 10 11  1  0  0  0
 10 31  1  0  0  0
 11 12  2  0  0  0
 11 32  1  0  0  0
 12 13  1  0  0  0
 12 33  1  0  0  0
 13 14  1  0  0  0
 13 15  2  0  0  0
 15 34  1  0  0  0
 16 17  1  0  0  0
 16 35  1  0  0  0
 16 36  1  0  0  0
 17 37  1  0  0  0
 17 38  1  0  0  0
 39 40  1  0  0  0
 39 41  1  0  0  0
M  CHG  1  39   1
M  END
> <energy>
67.5596

> <chiral flag>
0

> <version>
0

> <i_ionizer_Ion_state_n>
1

> <i_ionizer_Tot_Q>
1

> <s_ionizer_Ion_centers>
39

> <s_ionizer_Ion_types>
N5

> <s_ionizer_Ion_ctrs_in>
7

> <r_ionizer_Ionization_penalty>
0.000148807

> <r_ionizer_Ionization_penalty_charging>
0.000148807

> <r_ionizer_Ionization_penalty_neutral>
0

$$$$
ZINC001258452984
                    3D
 Structure written by MMmdl.
 43 44  0  0  1  0            999 V2000
   -1.5793   -1.1578   -1.7591 C   0  0  0  0  0  0
   -1.9627   -0.8177   -0.3211 C   0  0  2  0  0  0
   -2.4056    0.6579   -0.1961 C   0  0  0  0  0  0
   -3.1004    0.9559    1.1043 C   0  0  0  0  0  0
   -2.3754    1.5469    2.2851 C   0  0  0  0  0  0
   -3.3268    2.3999    1.4902 C   0  0  0  0  0  0
    0.2473   -0.4762    0.8598 C   0  0  0  0  0  0
    1.6249   -1.1112    0.4817 C   0  0  0  0  0  0
    1.6003   -2.6553    0.5578 C   0  0  0  0  0  0
    2.6687   -0.6445    1.5236 C   0  0  0  0  0  0
    2.0782   -0.7123   -0.9538 C   0  0  0  0  0  0
    2.4201    0.7465   -1.1452 C   0  0  0  0  0  0
    1.4631    1.7123   -1.7950 C   0  0  0  0  0  0
    2.6848    1.2585   -2.5400 C   0  0  0  0  0  0
   -0.7961   -0.5010   -2.1369 H   0  0  0  0  0  0
   -1.2269   -2.1927   -1.8442 H   0  0  0  0  0  0
   -2.4493   -1.0542   -2.4191 H   0  0  0  0  0  0
   -2.8508   -1.4318   -0.1079 H   0  0  0  0  0  0
   -1.5732    1.3496   -0.3696 H   0  0  0  0  0  0
   -3.1293    0.8664   -0.9956 H   0  0  0  0  0  0
   -3.9190    0.2721    1.2986 H   0  0  0  0  0  0
   -1.3160    1.7497    2.1957 H   0  0  0  0  0  0
   -2.6858    1.2431    3.2792 H   0  0  0  0  0  0
   -4.2844    2.6562    1.9309 H   0  0  0  0  0  0
   -2.9052    3.1844    0.8672 H   0  0  0  0  0  0
    0.1637    0.5190    0.4178 H   0  0  0  0  0  0
    0.2510   -0.2927    1.9439 H   0  0  0  0  0  0
    2.6056   -3.0692    0.4105 H   0  0  0  0  0  0
    0.9576   -3.0865   -0.2162 H   0  0  0  0  0  0
    1.2455   -3.0036    1.5332 H   0  0  0  0  0  0
    2.6451    0.4416    1.6670 H   0  0  0  0  0  0
    3.6848   -0.9305    1.2266 H   0  0  0  0  0  0
    2.4721   -1.0973    2.5048 H   0  0  0  0  0  0
    1.3215   -1.0240   -1.6816 H   0  0  0  0  0  0
    2.9853   -1.2788   -1.2050 H   0  0  0  0  0  0
    3.0996    1.1245   -0.3897 H   0  0  0  0  0  0
    0.5020    1.3548   -2.1424 H   0  0  0  0  0  0
    1.4440    2.7320   -1.4262 H   0  0  0  0  0  0
    2.5568    0.5814   -3.3783 H   0  0  0  0  0  0
    3.4880    1.9749   -2.6747 H   0  0  0  0  0  0
   -0.9417   -1.3683    0.6409 N   0  3  0  0  0  0
   -1.4016   -1.5187    1.5465 H   0  0  0  0  0  0
   -0.6061   -2.2667    0.2740 H   0  0  0  0  0  0
  1  2  1  0  0  0
  1 15  1  0  0  0
  1 16  1  0  0  0
  1 17  1  0  0  0
  2  3  1  0  0  0
  2 18  1  0  0  0
  2 41  1  0  0  0
  3  4  1  0  0  0
  3 19  1  0  0  0
  3 20  1  0  0  0
  4  5  1  0  0  0
  4  6  1  0  0  0
  4 21  1  0  0  0
  5  6  1  0  0  0
  5 22  1  0  0  0
  5 23  1  0  0  0
  6 24  1  0  0  0
  6 25  1  0  0  0
  7  8  1  0  0  0
  7 26  1  0  0  0
  7 27  1  0  0  0
  7 41  1  0  0  0
  8  9  1  0  0  0
  8 10  1  0  0  0
  8 11  1  0  0  0
  9 28  1  0  0  0
  9 29  1  0  0  0
  9 30  1  0  0  0
 10 31  1  0  0  0
 10 32  1  0  0  0
 10 33  1  0  0  0
 11 12  1  0  0  0
 11 34  1  0  0  0
 11 35  1  0  0  0
 12 13  1  0  0  0
 12 14  1  0  0  0
 12 36  1  0  0  0
 13 14  1  0  0  0
 13 37  1  0  0  0
 13 38  1  0  0  0
 14 39  1  0  0  0
 14 40  1  0  0  0
 41 42  1  0  0  0
 41 43  1  0  0  0
M  CHG  1  41   1
M  END
> <energy>
72.5405

> <chiral flag>
0

> <version>
0

> <i_ionizer_Ion_state_n>
1

> <i_ionizer_Tot_Q>
1

> <s_ionizer_Ion_centers>
41

> <s_ionizer_Ion_types>
N5

> <s_ionizer_Ion_ctrs_in>
7

> <r_ionizer_Ionization_penalty>
0.000148807

> <r_ionizer_Ionization_penalty_charging>
0.000148807

> <r_ionizer_Ionization_penalty_neutral>
0

$$$$
ZINC001258452985
                    3D
 Structure written by MMmdl.
 43 44  0  0  1  0            999 V2000
   -2.9468   -1.0779   -1.7436 C   0  0  0  0  0  0
   -2.1329   -0.9253   -0.4468 C   0  0  1  0  0  0
   -1.2392   -2.1760   -0.2530 C   0  0  0  0  0  0
   -0.7920   -2.3937    1.1702 C   0  0  0  0  0  0
   -0.4559   -3.7735    1.6850 C   0  0  0  0  0  0
    0.6412   -2.7843    1.4254 C   0  0  0  0  0  0
   -0.9938    0.9710    0.6659 C   0  0  0  0  0  0
    0.1616    2.0071    0.4988 C   0  0  0  0  0  0
   -0.1020    2.9663   -0.6784 C   0  0  0  0  0  0
    0.2171    2.8679    1.7832 C   0  0  0  0  0  0
    1.5431    1.2970    0.3716 C   0  0  0  0  0  0
    1.8571    0.6605   -0.9568 C   0  0  0  0  0  0
    3.0850   -0.2062   -1.0871 C   0  0  0  0  0  0
    3.0385    1.1342   -1.7668 C   0  0  0  0  0  0
   -3.5857   -1.9668   -1.7106 H   0  0  0  0  0  0
   -2.2902   -1.1486   -2.6198 H   0  0  0  0  0  0
   -3.6191   -0.2251   -1.8905 H   0  0  0  0  0  0
   -2.8546   -0.8303    0.3745 H   0  0  0  0  0  0
   -1.7791   -3.0716   -0.5815 H   0  0  0  0  0  0
   -0.3643   -2.1029   -0.9106 H   0  0  0  0  0  0
   -1.3098   -1.7580    1.8794 H   0  0  0  0  0  0
   -0.6820   -4.0034    2.7225 H   0  0  0  0  0  0
   -0.5661   -4.6146    1.0115 H   0  0  0  0  0  0
    1.2908   -2.9709    0.5776 H   0  0  0  0  0  0
    1.1458   -2.3300    2.2698 H   0  0  0  0  0  0
   -1.8976    1.4721    1.0267 H   0  0  0  0  0  0
   -0.7017    0.2639    1.4493 H   0  0  0  0  0  0
    0.6981    3.7093   -0.7647 H   0  0  0  0  0  0
   -1.0456    3.5084   -0.5405 H   0  0  0  0  0  0
   -0.1649    2.4482   -1.6408 H   0  0  0  0  0  0
    0.9861    3.6466    1.7021 H   0  0  0  0  0  0
   -0.7386    3.3730    1.9672 H   0  0  0  0  0  0
    0.4542    2.2563    2.6616 H   0  0  0  0  0  0
    1.6225    0.5228    1.1470 H   0  0  0  0  0  0
    2.3321    2.0254    0.5940 H   0  0  0  0  0  0
    0.9860    0.3017   -1.4903 H   0  0  0  0  0  0
    3.7465   -0.3178   -0.2350 H   0  0  0  0  0  0
    2.9963   -1.0998   -1.6945 H   0  0  0  0  0  0
    3.6804    1.9129   -1.3687 H   0  0  0  0  0  0
    2.9328    1.1649   -2.8452 H   0  0  0  0  0  0
   -1.3177    0.3114   -0.6218 N   0  3  0  0  0  0
   -0.4401    0.0623   -1.0929 H   0  0  0  0  0  0
   -1.8441    0.9719   -1.2057 H   0  0  0  0  0  0
  1  2  1  0  0  0
  1 15  1  0  0  0
  1 16  1  0  0  0
  1 17  1  0  0  0
  2  3  1  0  0  0
  2 18  1  0  0  0
  2 41  1  0  0  0
  3  4  1  0  0  0
  3 19  1  0  0  0
  3 20  1  0  0  0
  4  5  1  0  0  0
  4  6  1  0  0  0
  4 21  1  0  0  0
  5  6  1  0  0  0
  5 22  1  0  0  0
  5 23  1  0  0  0
  6 24  1  0  0  0
  6 25  1  0  0  0
  7  8  1  0  0  0
  7 26  1  0  0  0
  7 27  1  0  0  0
  7 41  1  0  0  0
  8  9  1  0  0  0
  8 10  1  0  0  0
  8 11  1  0  0  0
  9 28  1  0  0  0
  9 29  1  0  0  0
  9 30  1  0  0  0
 10 31  1  0  0  0
 10 32  1  0  0  0
 10 33  1  0  0  0
 11 12  1  0  0  0
 11 34  1  0  0  0
 11 35  1  0  0  0
 12 13  1  0  0  0
 12 14  1  0  0  0
 12 36  1  0  0  0
 13 14  1  0  0  0
 13 37  1  0  0  0
 13 38  1  0  0  0
 14 39  1  0  0  0
 14 40  1  0  0  0
 41 42  1  0  0  0
 41 43  1  0  0  0
M  CHG  1  41   1
M  END
> <energy>
67.4782

> <chiral flag>
0

> <version>
0

> <i_ionizer_Ion_state_n>
1

> <i_ionizer_Tot_Q>
1

> <s_ionizer_Ion_centers>
41

> <s_ionizer_Ion_types>
N5

> <s_ionizer_Ion_ctrs_in>
7

> <r_ionizer_Ionization_penalty>
0.000148807

> <r_ionizer_Ionization_penalty_charging>
0.000148807

> <r_ionizer_Ionization_penalty_neutral>
0

$$$$
ZINC001258453018
                    3D
 Structure written by MMmdl.
 41 43  0  0  1  0            999 V2000
   -2.5096    2.2547   -0.0733 C   0  0  0  0  0  0
   -1.5740    1.1254    0.3690 C   0  0  1  0  0  0
   -2.2977    0.0952    1.2669 C   0  0  0  0  0  0
   -3.3363   -0.7386    0.5656 C   0  0  0  0  0  0
   -3.7524   -2.0540    1.1739 C   0  0  0  0  0  0
   -2.9523   -2.0369   -0.1000 C   0  0  0  0  0  0
    0.3026    1.0748   -1.2227 C   0  0  2  0  0  0
    1.0977    0.4356   -2.3230 C   0  0  0  0  0  0
    1.6057    0.3531   -0.8999 C   0  0  0  0  0  0
    1.5436   -1.0084   -0.2164 C   0  0  0  0  0  0
    2.9448   -1.5520    0.0177 C   0  0  0  0  0  0
    3.7312   -0.6222    0.9289 C   0  0  0  0  0  0
    5.0525   -0.7512    0.6346 F   0  0  0  0  0  0
    3.5948   -1.0329    2.2186 F   0  0  0  0  0  0
    3.3329    0.8451    0.8480 C   0  0  0  0  0  0
    2.8179    1.1989   -0.5406 C   0  0  0  0  0  0
   -2.9982    2.7142    0.7930 H   0  0  0  0  0  0
   -1.9535    3.0438   -0.5893 H   0  0  0  0  0  0
   -3.2930    1.9028   -0.7518 H   0  0  0  0  0  0
   -0.7874    1.5692    0.9946 H   0  0  0  0  0  0
   -2.7833    0.6217    2.0990 H   0  0  0  0  0  0
   -1.5424   -0.5604    1.7209 H   0  0  0  0  0  0
   -4.1180   -0.1445    0.1076 H   0  0  0  0  0  0
   -4.7933   -2.3458    1.1066 H   0  0  0  0  0  0
   -3.2570   -2.3899    2.0779 H   0  0  0  0  0  0
   -1.9151   -2.3483   -0.0572 H   0  0  0  0  0  0
   -3.4597   -2.3058   -1.0200 H   0  0  0  0  0  0
    0.3020    2.1626   -1.2468 H   0  0  0  0  0  0
    0.7049   -0.4580   -2.7949 H   0  0  0  0  0  0
    1.6159    1.0879   -3.0175 H   0  0  0  0  0  0
    1.0185   -0.9151    0.7430 H   0  0  0  0  0  0
    0.9789   -1.7251   -0.8230 H   0  0  0  0  0  0
    3.4638   -1.6577   -0.9426 H   0  0  0  0  0  0
    2.8878   -2.5502    0.4659 H   0  0  0  0  0  0
    4.1923    1.4772    1.0997 H   0  0  0  0  0  0
    2.5539    1.0544    1.5906 H   0  0  0  0  0  0
    3.6105    1.0390   -1.2818 H   0  0  0  0  0  0
    2.5667    2.2649   -0.5712 H   0  0  0  0  0  0
   -0.9725    0.4447   -0.8101 N   0  3  0  0  0  0
   -0.7946   -0.5378   -0.5708 H   0  0  0  0  0  0
   -1.6344    0.4918   -1.5936 H   0  0  0  0  0  0
  1  2  1  0  0  0
  1 17  1  0  0  0
  1 18  1  0  0  0
  1 19  1  0  0  0
  2  3  1  0  0  0
  2 20  1  0  0  0
  2 39  1  0  0  0
  3  4  1  0  0  0
  3 21  1  0  0  0
  3 22  1  0  0  0
  4  5  1  0  0  0
  4  6  1  0  0  0
  4 23  1  0  0  0
  5  6  1  0  0  0
  5 24  1  0  0  0
  5 25  1  0  0  0
  6 26  1  0  0  0
  6 27  1  0  0  0
  7  8  1  0  0  0
  7  9  1  0  0  0
  7 28  1  0  0  0
  7 39  1  0  0  0
  8  9  1  0  0  0
  8 29  1  0  0  0
  8 30  1  0  0  0
  9 10  1  0  0  0
  9 16  1  0  0  0
 10 11  1  0  0  0
 10 31  1  0  0  0
 10 32  1  0  0  0
 11 12  1  0  0  0
 11 33  1  0  0  0
 11 34  1  0  0  0
 12 13  1  0  0  0
 12 14  1  0  0  0
 12 15  1  0  0  0
 15 16  1  0  0  0
 15 35  1  0  0  0
 15 36  1  0  0  0
 16 37  1  0  0  0
 16 38  1  0  0  0
 39 40  1  0  0  0
 39 41  1  0  0  0
M  CHG  1  39   1
M  END
> <energy>
33.9904

> <chiral flag>
0

> <version>
0

> <i_ionizer_Ion_state_n>
1

> <i_ionizer_Tot_Q>
1

> <s_ionizer_Ion_centers>
39

> <s_ionizer_Ion_types>
N5

> <s_ionizer_Ion_ctrs_in>
7

> <r_ionizer_Ionization_penalty>
0.000148807

> <r_ionizer_Ionization_penalty_charging>
0.000148807

> <r_ionizer_Ionization_penalty_neutral>
0

$$$$
ZINC001258453019
                    3D
 Structure written by MMmdl.
 41 43  0  0  1  0            999 V2000
   -1.4289    1.3816   -0.5774 C   0  0  0  0  0  0
   -1.7239    0.2264    0.3846 C   0  0  1  0  0  0
   -2.8972   -0.6160   -0.1752 C   0  0  0  0  0  0
   -3.5713   -1.4638    0.8751 C   0  0  0  0  0  0
   -4.9764   -1.1464    1.3227 C   0  0  0  0  0  0
   -4.7186   -2.3601    0.4775 C   0  0  0  0  0  0
    0.6392    0.0157    1.1115 C   0  0  1  0  0  0
    1.8888   -0.8019    1.2512 C   0  0  0  0  0  0
    1.8443    0.3194    0.2334 C   0  0  0  0  0  0
    2.6345    1.5832    0.5367 C   0  0  0  0  0  0
    3.4897    2.0306   -0.6470 C   0  0  0  0  0  0
    4.1904    0.8474   -1.2882 C   0  0  0  0  0  0
    5.0879    0.3350   -0.4025 F   0  0  0  0  0  0
    4.9216    1.2845   -2.3471 F   0  0  0  0  0  0
    3.2540   -0.2626   -1.7503 C   0  0  0  0  0  0
    1.8312   -0.0750   -1.2289 C   0  0  0  0  0  0
   -2.3209    1.9998   -0.7276 H   0  0  0  0  0  0
   -1.1120    1.0147   -1.5588 H   0  0  0  0  0  0
   -0.6440    2.0386   -0.1892 H   0  0  0  0  0  0
   -2.0100    0.6447    1.3595 H   0  0  0  0  0  0
   -2.5374   -1.2674   -0.9824 H   0  0  0  0  0  0
   -3.6423    0.0484   -0.6327 H   0  0  0  0  0  0
   -2.8837   -1.8720    1.6082 H   0  0  0  0  0  0
   -5.5060   -0.3215    0.8594 H   0  0  0  0  0  0
   -5.2210   -1.2980    2.3687 H   0  0  0  0  0  0
   -4.7869   -3.3337    0.9507 H   0  0  0  0  0  0
   -5.0623   -2.3458   -0.5516 H   0  0  0  0  0  0
    0.4367    0.6923    1.9398 H   0  0  0  0  0  0
    1.8827   -1.8260    0.8915 H   0  0  0  0  0  0
    2.4798   -0.6747    2.1520 H   0  0  0  0  0  0
    3.2873    1.4189    1.4026 H   0  0  0  0  0  0
    1.9513    2.3958    0.8072 H   0  0  0  0  0  0
    4.2252    2.7696   -0.3088 H   0  0  0  0  0  0
    2.8695    2.5360   -1.3965 H   0  0  0  0  0  0
    3.2305   -0.3149   -2.8449 H   0  0  0  0  0  0
    3.6403   -1.2242   -1.3933 H   0  0  0  0  0  0
    1.2692   -1.0007   -1.3987 H   0  0  0  0  0  0
    1.3297    0.7081   -1.8115 H   0  0  0  0  0  0
   -0.5444   -0.6817    0.5392 N   0  3  0  0  0  0
   -0.8038   -1.4556    1.1622 H   0  0  0  0  0  0
   -0.2926   -1.0548   -0.3836 H   0  0  0  0  0  0
  1  2  1  0  0  0
  1 17  1  0  0  0
  1 18  1  0  0  0
  1 19  1  0  0  0
  2  3  1  0  0  0
  2 20  1  0  0  0
  2 39  1  0  0  0
  3  4  1  0  0  0
  3 21  1  0  0  0
  3 22  1  0  0  0
  4  5  1  0  0  0
  4  6  1  0  0  0
  4 23  1  0  0  0
  5  6  1  0  0  0
  5 24  1  0  0  0
  5 25  1  0  0  0
  6 26  1  0  0  0
  6 27  1  0  0  0
  7  8  1  0  0  0
  7  9  1  0  0  0
  7 28  1  0  0  0
  7 39  1  0  0  0
  8  9  1  0  0  0
  8 29  1  0  0  0
  8 30  1  0  0  0
  9 10  1  0  0  0
  9 16  1  0  0  0
 10 11  1  0  0  0
 10 31  1  0  0  0
 10 32  1  0  0  0
 11 12  1  0  0  0
 11 33  1  0  0  0
 11 34  1  0  0  0
 12 13  1  0  0  0
 12 14  1  0  0  0
 12 15  1  0  0  0
 15 16  1  0  0  0
 15 35  1  0  0  0
 15 36  1  0  0  0
 16 37  1  0  0  0
 16 38  1  0  0  0
 39 40  1  0  0  0
 39 41  1  0  0  0
M  CHG  1  39   1
M  END
> <energy>
35.3673

> <chiral flag>
0

> <version>
0

> <i_ionizer_Ion_state_n>
1

> <i_ionizer_Tot_Q>
1

> <s_ionizer_Ion_centers>
39

> <s_ionizer_Ion_types>
N5

> <s_ionizer_Ion_ctrs_in>
7

> <r_ionizer_Ionization_penalty>
0.000148807

> <r_ionizer_Ionization_penalty_charging>
0.000148807

> <r_ionizer_Ionization_penalty_neutral>
0

$$$$
ZINC001258453020
                    3D
 Structure written by MMmdl.
 41 43  0  0  1  0            999 V2000
   -1.1987   -1.9052   -0.2745 C   0  0  0  0  0  0
   -1.6886   -1.2336    1.0101 C   0  0  2  0  0  0
   -2.8245   -0.2078    0.7800 C   0  0  0  0  0  0
   -2.6810    0.6532   -0.4518 C   0  0  0  0  0  0
   -3.7312    1.6919   -0.7584 C   0  0  0  0  0  0
   -3.6181    0.4666   -1.6203 C   0  0  0  0  0  0
    0.1468    0.4291    1.4090 C   0  0  1  0  0  0
    1.3851    0.8339    2.1562 C   0  0  0  0  0  0
    1.5063    0.3314    0.7366 C   0  0  0  0  0  0
    2.2314   -1.0002    0.5852 C   0  0  0  0  0  0
    2.5584   -1.2779   -0.8750 C   0  0  0  0  0  0
    3.4661   -0.1932   -1.4342 C   0  0  0  0  0  0
    4.7634   -0.5183   -1.1918 F   0  0  0  0  0  0
    3.3340   -0.1757   -2.7878 F   0  0  0  0  0  0
    3.2043    1.2026   -0.8842 C   0  0  0  0  0  0
    1.7773    1.3385   -0.3720 C   0  0  0  0  0  0
   -0.6876   -1.2044   -0.9403 H   0  0  0  0  0  0
   -2.0435   -2.3382   -0.8232 H   0  0  0  0  0  0
   -0.5032   -2.7220   -0.0496 H   0  0  0  0  0  0
   -2.1432   -2.0393    1.6051 H   0  0  0  0  0  0
   -2.9261    0.4396    1.6608 H   0  0  0  0  0  0
   -3.7693   -0.7664    0.7170 H   0  0  0  0  0  0
   -1.6581    0.9273   -0.6744 H   0  0  0  0  0  0
   -3.3974    2.6374   -1.1714 H   0  0  0  0  0  0
   -4.5949    1.7769   -0.1105 H   0  0  0  0  0  0
   -3.2162    0.5828   -2.6203 H   0  0  0  0  0  0
   -4.4120   -0.2672   -1.5517 H   0  0  0  0  0  0
   -0.4871    1.2799    1.1633 H   0  0  0  0  0  0
    1.5421    1.8892    2.3515 H   0  0  0  0  0  0
    1.7248    0.1977    2.9680 H   0  0  0  0  0  0
    3.1652   -0.9626    1.1618 H   0  0  0  0  0  0
    1.6446   -1.8302    0.9912 H   0  0  0  0  0  0
    1.6382   -1.3239   -1.4668 H   0  0  0  0  0  0
    3.0452   -2.2548   -0.9686 H   0  0  0  0  0  0
    3.3918    1.9505   -1.6622 H   0  0  0  0  0  0
    3.9039    1.4094   -0.0651 H   0  0  0  0  0  0
    1.6119    2.3622   -0.0167 H   0  0  0  0  0  0
    1.0697    1.1707   -1.1917 H   0  0  0  0  0  0
   -0.5676   -0.7841    1.9100 N   0  3  0  0  0  0
   -0.9583   -0.5723    2.8356 H   0  0  0  0  0  0
    0.1110   -1.5503    1.9921 H   0  0  0  0  0  0
  1  2  1  0  0  0
  1 17  1  0  0  0
  1 18  1  0  0  0
  1 19  1  0  0  0
  2  3  1  0  0  0
  2 20  1  0  0  0
  2 39  1  0  0  0
  3  4  1  0  0  0
  3 21  1  0  0  0
  3 22  1  0  0  0
  4  5  1  0  0  0
  4  6  1  0  0  0
  4 23  1  0  0  0
  5  6  1  0  0  0
  5 24  1  0  0  0
  5 25  1  0  0  0
  6 26  1  0  0  0
  6 27  1  0  0  0
  7  8  1  0  0  0
  7  9  1  0  0  0
  7 28  1  0  0  0
  7 39  1  0  0  0
  8  9  1  0  0  0
  8 29  1  0  0  0
  8 30  1  0  0  0
  9 10  1  0  0  0
  9 16  1  0  0  0
 10 11  1  0  0  0
 10 31  1  0  0  0
 10 32  1  0  0  0
 11 12  1  0  0  0
 11 33  1  0  0  0
 11 34  1  0  0  0
 12 13  1  0  0  0
 12 14  1  0  0  0
 12 15  1  0  0  0
 15 16  1  0  0  0
 15 35  1  0  0  0
 15 36  1  0  0  0
 16 37  1  0  0  0
 16 38  1  0  0  0
 39 40  1  0  0  0
 39 41  1  0  0  0
M  CHG  1  39   1
M  END
> <energy>
37.9969

> <chiral flag>
0

> <version>
0

> <i_ionizer_Ion_state_n>
1

> <i_ionizer_Tot_Q>
1

> <s_ionizer_Ion_centers>
39

> <s_ionizer_Ion_types>
N5

> <s_ionizer_Ion_ctrs_in>
7

> <r_ionizer_Ionization_penalty>
0.000148807

> <r_ionizer_Ionization_penalty_charging>
0.000148807

> <r_ionizer_Ionization_penalty_neutral>
0

$$$$
ZINC001258453021
                    3D
 Structure written by MMmdl.
 41 43  0  0  1  0            999 V2000
   -2.4320    1.1485    1.3056 C   0  0  0  0  0  0
   -1.8010    0.2842    0.2091 C   0  0  2  0  0  0
   -2.5342   -1.0672    0.0743 C   0  0  0  0  0  0
   -3.8836   -0.9311   -0.5762 C   0  0  0  0  0  0
   -4.4508   -2.0853   -1.3605 C   0  0  0  0  0  0
   -3.9934   -0.8435   -2.0768 C   0  0  0  0  0  0
    0.5305    1.0979    0.2272 C   0  0  2  0  0  0
    0.8836    1.4327   -1.1957 C   0  0  0  0  0  0
    1.9217    0.7934   -0.3088 C   0  0  0  0  0  0
    3.0739    1.6480    0.1774 C   0  0  0  0  0  0
    3.7453    0.9880    1.3782 C   0  0  0  0  0  0
    4.1616   -0.4373    1.0497 C   0  0  0  0  0  0
    4.6917   -1.0164    2.1571 F   0  0  0  0  0  0
    5.1531   -0.4117    0.1200 F   0  0  0  0  0  0
    3.0127   -1.2908    0.5367 C   0  0  0  0  0  0
    2.3359   -0.6238   -0.6566 C   0  0  0  0  0  0
   -1.9087    2.1044    1.4115 H   0  0  0  0  0  0
   -3.4768    1.3819    1.0730 H   0  0  0  0  0  0
   -2.4075    0.6431    2.2779 H   0  0  0  0  0  0
   -1.8695    0.8145   -0.7486 H   0  0  0  0  0  0
   -1.9176   -1.7556   -0.5194 H   0  0  0  0  0  0
   -2.6584   -1.5344    1.0597 H   0  0  0  0  0  0
   -4.5811   -0.3572    0.0217 H   0  0  0  0  0  0
   -5.5164   -2.2687   -1.2908 H   0  0  0  0  0  0
   -3.8511   -2.9827   -1.4664 H   0  0  0  0  0  0
   -3.0887   -0.9060   -2.6714 H   0  0  0  0  0  0
   -4.7503   -0.1904   -2.4947 H   0  0  0  0  0  0
    0.4470    1.9450    0.9065 H   0  0  0  0  0  0
    0.9997    2.4772   -1.4598 H   0  0  0  0  0  0
    0.4383    0.8386   -1.9863 H   0  0  0  0  0  0
    3.7993    1.7699   -0.6372 H   0  0  0  0  0  0
    2.7364    2.6541    0.4539 H   0  0  0  0  0  0
    3.0641    0.9819    2.2379 H   0  0  0  0  0  0
    4.6245    1.5707    1.6733 H   0  0  0  0  0  0
    3.3881   -2.2772    0.2406 H   0  0  0  0  0  0
    2.2875   -1.4561    1.3431 H   0  0  0  0  0  0
    1.4849   -1.2306   -0.9853 H   0  0  0  0  0  0
    3.0359   -0.5868   -1.5017 H   0  0  0  0  0  0
   -0.3795   -0.0353    0.5304 N   0  3  0  0  0  0
   -0.3082   -0.2586    1.5301 H   0  0  0  0  0  0
   -0.0899   -0.8497   -0.0237 H   0  0  0  0  0  0
  1  2  1  0  0  0
  1 17  1  0  0  0
  1 18  1  0  0  0
  1 19  1  0  0  0
  2  3  1  0  0  0
  2 20  1  0  0  0
  2 39  1  0  0  0
  3  4  1  0  0  0
  3 21  1  0  0  0
  3 22  1  0  0  0
  4  5  1  0  0  0
  4  6  1  0  0  0
  4 23  1  0  0  0
  5  6  1  0  0  0
  5 24  1  0  0  0
  5 25  1  0  0  0
  6 26  1  0  0  0
  6 27  1  0  0  0
  7  8  1  0  0  0
  7  9  1  0  0  0
  7 28  1  0  0  0
  7 39  1  0  0  0
  8  9  1  0  0  0
  8 29  1  0  0  0
  8 30  1  0  0  0
  9 10  1  0  0  0
  9 16  1  0  0  0
 10 11  1  0  0  0
 10 31  1  0  0  0
 10 32  1  0  0  0
 11 12  1  0  0  0
 11 33  1  0  0  0
 11 34  1  0  0  0
 12 13  1  0  0  0
 12 14  1  0  0  0
 12 15  1  0  0  0
 15 16  1  0  0  0
 15 35  1  0  0  0
 15 36  1  0  0  0
 16 37  1  0  0  0
 16 38  1  0  0  0
 39 40  1  0  0  0
 39 41  1  0  0  0
M  CHG  1  39   1
M  END
> <energy>
26.3132

> <chiral flag>
0

> <version>
0

> <i_ionizer_Ion_state_n>
1

> <i_ionizer_Tot_Q>
1

> <s_ionizer_Ion_centers>
39

> <s_ionizer_Ion_types>
N5

> <s_ionizer_Ion_ctrs_in>
7

> <r_ionizer_Ionization_penalty>
0.000148807

> <r_ionizer_Ionization_penalty_charging>
0.000148807

> <r_ionizer_Ionization_penalty_neutral>
0

$$$$
ZINC001258453026
                    3D
 Structure written by MMmdl.
 43 44  0  0  1  0            999 V2000
   -2.2357    2.2393   -0.9056 C   0  0  0  0  0  0
   -1.9633    0.8404   -1.4622 C   0  0  2  0  0  0
   -2.9639   -0.2246   -0.9513 C   0  0  0  0  0  0
   -3.0729   -0.3569    0.5407 C   0  0  0  0  0  0
   -4.2306   -1.1192    1.1381 C   0  0  0  0  0  0
   -4.1500    0.3740    1.3023 C   0  0  0  0  0  0
    0.1904    0.7482   -0.1936 C   0  0  0  0  0  0
    1.4107   -0.1970    0.0512 C   0  0  0  0  0  0
    0.8947   -1.6319    0.3114 C   0  0  0  0  0  0
    2.3614   -0.1951   -1.1739 C   0  0  0  0  0  0
    3.7017   -0.8827   -0.9112 C   0  0  0  0  0  0
    4.3865   -0.3182    0.3196 C   0  0  0  0  0  0
    5.5358   -0.9990    0.5545 F   0  0  0  0  0  0
    4.7443    0.9712    0.0798 F   0  0  0  0  0  0
    3.5034   -0.3735    1.5525 C   0  0  0  0  0  0
    2.1657    0.3232    1.3061 C   0  0  0  0  0  0
   -3.2695    2.5384   -1.1156 H   0  0  0  0  0  0
   -1.5822    2.9819   -1.3773 H   0  0  0  0  0  0
   -2.0867    2.2937    0.1776 H   0  0  0  0  0  0
   -2.1635    0.9097   -2.5416 H   0  0  0  0  0  0
   -3.9507    0.0030   -1.3743 H   0  0  0  0  0  0
   -2.6866   -1.2036   -1.3624 H   0  0  0  0  0  0
   -2.1167   -0.5280    1.0143 H   0  0  0  0  0  0
   -4.0316   -1.7338    2.0099 H   0  0  0  0  0  0
   -4.9848   -1.5228    0.4734 H   0  0  0  0  0  0
   -3.9080    0.7581    2.2861 H   0  0  0  0  0  0
   -4.8594    0.9808    0.7509 H   0  0  0  0  0  0
    0.5403    1.7822   -0.3048 H   0  0  0  0  0  0
   -0.4332    0.7275    0.7043 H   0  0  0  0  0  0
    1.7008   -2.3347    0.5385 H   0  0  0  0  0  0
    0.3648   -2.0315   -0.5596 H   0  0  0  0  0  0
    0.2011   -1.6543    1.1591 H   0  0  0  0  0  0
    2.5591    0.8407   -1.4743 H   0  0  0  0  0  0
    1.8863   -0.6842   -2.0331 H   0  0  0  0  0  0
    4.3538   -0.7508   -1.7826 H   0  0  0  0  0  0
    3.5632   -1.9637   -0.7986 H   0  0  0  0  0  0
    4.0180    0.1155    2.3871 H   0  0  0  0  0  0
    3.3473   -1.4143    1.8593 H   0  0  0  0  0  0
    2.3586    1.3981    1.1908 H   0  0  0  0  0  0
    1.5378    0.2171    2.2008 H   0  0  0  0  0  0
   -0.5483    0.3405   -1.4215 N   0  3  0  0  0  0
   -0.5644   -0.6852   -1.4656 H   0  0  0  0  0  0
   -0.0491    0.7104   -2.2390 H   0  0  0  0  0  0
  1  2  1  0  0  0
  1 17  1  0  0  0
  1 18  1  0  0  0
  1 19  1  0  0  0
  2  3  1  0  0  0
  2 20  1  0  0  0
  2 41  1  0  0  0
  3  4  1  0  0  0
  3 21  1  0  0  0
  3 22  1  0  0  0
  4  5  1  0  0  0
  4  6  1  0  0  0
  4 23  1  0  0  0
  5  6  1  0  0  0
  5 24  1  0  0  0
  5 25  1  0  0  0
  6 26  1  0  0  0
  6 27  1  0  0  0
  7  8  1  0  0  0
  7 28  1  0  0  0
  7 29  1  0  0  0
  7 41  1  0  0  0
  8  9  1  0  0  0
  8 10  1  0  0  0
  8 16  1  0  0  0
  9 30  1  0  0  0
  9 31  1  0  0  0
  9 32  1  0  0  0
 10 11  1  0  0  0
 10 33  1  0  0  0
 10 34  1  0  0  0
 11 12  1  0  0  0
 11 35  1  0  0  0
 11 36  1  0  0  0
 12 13  1  0  0  0
 12 14  1  0  0  0
 12 15  1  0  0  0
 15 16  1  0  0  0
 15 37  1  0  0  0
 15 38  1  0  0  0
 16 39  1  0  0  0
 16 40  1  0  0  0
 41 42  1  0  0  0
 41 43  1  0  0  0
M  CHG  1  41   1
M  END
> <energy>
54.947

> <chiral flag>
0

> <version>
0

> <i_ionizer_Ion_state_n>
1

> <i_ionizer_Tot_Q>
1

> <s_ionizer_Ion_centers>
41

> <s_ionizer_Ion_types>
N5

> <s_ionizer_Ion_ctrs_in>
7

> <r_ionizer_Ionization_penalty>
0.000148807

> <r_ionizer_Ionization_penalty_charging>
0.000148807

> <r_ionizer_Ionization_penalty_neutral>
0

$$$$
ZINC001258453027
                    3D
 Structure written by MMmdl.
 43 44  0  0  1  0            999 V2000
   -2.2091    1.3417    1.9412 C   0  0  0  0  0  0
   -1.8371    0.1119    1.1032 C   0  0  1  0  0  0
   -2.7870   -0.0018   -0.1149 C   0  0  0  0  0  0
   -2.5887   -1.2615   -0.9128 C   0  0  0  0  0  0
   -3.3701   -2.5121   -0.6000 C   0  0  0  0  0  0
   -3.6834   -1.7267   -1.8437 C   0  0  0  0  0  0
    0.0874    1.1009   -0.1156 C   0  0  0  0  0  0
    1.5960    1.0087   -0.5278 C   0  0  0  0  0  0
    1.7925    2.1097   -1.6075 C   0  0  0  0  0  0
    2.5713    1.3300    0.6378 C   0  0  0  0  0  0
    2.8895    0.1707    1.5788 C   0  0  0  0  0  0
    3.2913   -1.0727    0.8112 C   0  0  0  0  0  0
    4.4707   -0.8445    0.1758 F   0  0  0  0  0  0
    3.5189   -2.0875    1.6808 F   0  0  0  0  0  0
    2.2466   -1.4884   -0.2025 C   0  0  0  0  0  0
    1.9392   -0.3568   -1.1823 C   0  0  0  0  0  0
   -3.2393    1.2613    2.3051 H   0  0  0  0  0  0
   -1.5623    1.4341    2.8208 H   0  0  0  0  0  0
   -2.1320    2.2666    1.3603 H   0  0  0  0  0  0
   -2.0230   -0.7669    1.7337 H   0  0  0  0  0  0
   -3.8239    0.0390    0.2476 H   0  0  0  0  0  0
   -2.6688    0.8650   -0.7760 H   0  0  0  0  0  0
   -1.5668   -1.3739   -1.2624 H   0  0  0  0  0  0
   -2.8685   -3.4657   -0.7178 H   0  0  0  0  0  0
   -4.0937   -2.4907    0.2066 H   0  0  0  0  0  0
   -4.6200   -1.1806   -1.8696 H   0  0  0  0  0  0
   -3.3900   -2.1455   -2.7991 H   0  0  0  0  0  0
   -0.4988    1.0364   -1.0389 H   0  0  0  0  0  0
   -0.0947    2.0956    0.3101 H   0  0  0  0  0  0
    1.5695    3.1039   -1.2026 H   0  0  0  0  0  0
    1.1359    1.9418   -2.4682 H   0  0  0  0  0  0
    2.8231    2.1261   -1.9792 H   0  0  0  0  0  0
    2.2044    2.1833    1.2213 H   0  0  0  0  0  0
    3.5303    1.6549    0.2095 H   0  0  0  0  0  0
    2.0486   -0.0529    2.2411 H   0  0  0  0  0  0
    3.7127    0.4647    2.2402 H   0  0  0  0  0  0
    1.3424   -1.8281    0.3101 H   0  0  0  0  0  0
    2.6146   -2.3563   -0.7629 H   0  0  0  0  0  0
    2.8265   -0.2328   -1.8184 H   0  0  0  0  0  0
    1.1312   -0.6701   -1.8553 H   0  0  0  0  0  0
   -0.3589    0.0537    0.8333 N   0  3  0  0  0  0
    0.1429    0.1783    1.7204 H   0  0  0  0  0  0
   -0.1323   -0.8664    0.4381 H   0  0  0  0  0  0
  1  2  1  0  0  0
  1 17  1  0  0  0
  1 18  1  0  0  0
  1 19  1  0  0  0
  2  3  1  0  0  0
  2 20  1  0  0  0
  2 41  1  0  0  0
  3  4  1  0  0  0
  3 21  1  0  0  0
  3 22  1  0  0  0
  4  5  1  0  0  0
  4  6  1  0  0  0
  4 23  1  0  0  0
  5  6  1  0  0  0
  5 24  1  0  0  0
  5 25  1  0  0  0
  6 26  1  0  0  0
  6 27  1  0  0  0
  7  8  1  0  0  0
  7 28  1  0  0  0
  7 29  1  0  0  0
  7 41  1  0  0  0
  8  9  1  0  0  0
  8 10  1  0  0  0
  8 16  1  0  0  0
  9 30  1  0  0  0
  9 31  1  0  0  0
  9 32  1  0  0  0
 10 11  1  0  0  0
 10 33  1  0  0  0
 10 34  1  0  0  0
 11 12  1  0  0  0
 11 35  1  0  0  0
 11 36  1  0  0  0
 12 13  1  0  0  0
 12 14  1  0  0  0
 12 15  1  0  0  0
 15 16  1  0  0  0
 15 37  1  0  0  0
 15 38  1  0  0  0
 16 39  1  0  0  0
 16 40  1  0  0  0
 41 42  1  0  0  0
 41 43  1  0  0  0
M  CHG  1  41   1
M  END
> <energy>
54.6215

> <chiral flag>
0

> <version>
0

> <i_ionizer_Ion_state_n>
1

> <i_ionizer_Tot_Q>
1

> <s_ionizer_Ion_centers>
41

> <s_ionizer_Ion_types>
N5

> <s_ionizer_Ion_ctrs_in>
7

> <r_ionizer_Ionization_penalty>
0.000148807

> <r_ionizer_Ionization_penalty_charging>
0.000148807

> <r_ionizer_Ionization_penalty_neutral>
0

$$$$
ZINC001258453028
                    3D
 Structure written by MMmdl.
 44 46  0  0  1  0            999 V2000
   -2.1988   -0.2531    2.4801 C   0  0  0  0  0  0
   -1.5731   -0.4422    1.0930 C   0  0  1  0  0  0
   -2.5329   -1.2644    0.2027 C   0  0  0  0  0  0
   -1.9344   -1.6258   -1.1307 C   0  0  0  0  0  0
   -2.8181   -2.1975   -2.2112 C   0  0  0  0  0  0
   -2.2492   -0.8147   -2.3619 C   0  0  0  0  0  0
   -0.1882    1.5824    1.0943 C   0  0  0  0  0  0
    0.8047    2.0904    0.0561 C   0  0  0  0  0  0
    2.2622    1.7661    0.3660 C   0  0  0  0  0  0
    2.5625    0.2844    0.2958 C   0  0  0  0  0  0
    2.7063   -0.4743    1.4684 C   0  0  0  0  0  0
    2.9736   -1.8439    1.4033 C   0  0  0  0  0  0
    3.1163   -2.4683    0.1662 C   0  0  0  0  0  0
    2.9867   -1.7249   -1.0051 C   0  0  0  0  0  0
    2.7101   -0.3572   -0.9404 C   0  0  0  0  0  0
    0.5284    3.4816   -0.5043 C   0  0  0  0  0  0
    0.3981    2.2966   -1.4033 C   0  0  0  0  0  0
   -1.5635    0.3511    3.1359 H   0  0  0  0  0  0
   -2.3392   -1.2230    2.9702 H   0  0  0  0  0  0
   -3.1762    0.2360    2.4143 H   0  0  0  0  0  0
   -0.6414   -1.0135    1.2003 H   0  0  0  0  0  0
   -3.4799   -0.7252    0.0661 H   0  0  0  0  0  0
   -2.7783   -2.2010    0.7192 H   0  0  0  0  0  0
   -0.9294   -2.0272   -1.0358 H   0  0  0  0  0  0
   -2.4092   -2.9852   -2.8340 H   0  0  0  0  0  0
   -3.8809   -2.2861   -2.0172 H   0  0  0  0  0  0
   -2.9212    0.0293   -2.2637 H   0  0  0  0  0  0
   -1.4505   -0.6624   -3.0775 H   0  0  0  0  0  0
   -0.5977    2.4270    1.6639 H   0  0  0  0  0  0
    0.3309    0.9689    1.8385 H   0  0  0  0  0  0
    2.9387    2.2907   -0.3229 H   0  0  0  0  0  0
    2.5069    2.1494    1.3665 H   0  0  0  0  0  0
    2.6002   -0.0046    2.4429 H   0  0  0  0  0  0
    3.0722   -2.4212    2.3185 H   0  0  0  0  0  0
    3.3279   -3.5325    0.1144 H   0  0  0  0  0  0
    3.0954   -2.2097   -1.9726 H   0  0  0  0  0  0
    2.6070    0.2066   -1.8644 H   0  0  0  0  0  0
   -0.3850    3.9925   -0.2238 H   0  0  0  0  0  0
    1.3627    4.1526   -0.6728 H   0  0  0  0  0  0
   -0.5953    2.0036   -1.7247 H   0  0  0  0  0  0
    1.1414    2.1709   -2.1820 H   0  0  0  0  0  0
   -1.2944    0.8588    0.4358 N   0  3  0  0  0  0
   -1.0422    0.6881   -0.5447 H   0  0  0  0  0  0
   -2.1407    1.4388    0.4756 H   0  0  0  0  0  0
  1  2  1  0  0  0
  1 18  1  0  0  0
  1 19  1  0  0  0
  1 20  1  0  0  0
  2  3  1  0  0  0
  2 21  1  0  0  0
  2 42  1  0  0  0
  3  4  1  0  0  0
  3 22  1  0  0  0
  3 23  1  0  0  0
  4  5  1  0  0  0
  4  6  1  0  0  0
  4 24  1  0  0  0
  5  6  1  0  0  0
  5 25  1  0  0  0
  5 26  1  0  0  0
  6 27  1  0  0  0
  6 28  1  0  0  0
  7  8  1  0  0  0
  7 29  1  0  0  0
  7 30  1  0  0  0
  7 42  1  0  0  0
  8  9  1  0  0  0
  8 16  1  0  0  0
  8 17  1  0  0  0
  9 10  1  0  0  0
  9 31  1  0  0  0
  9 32  1  0  0  0
 10 11  2  0  0  0
 10 15  1  0  0  0
 11 12  1  0  0  0
 11 33  1  0  0  0
 12 13  2  0  0  0
 12 34  1  0  0  0
 13 14  1  0  0  0
 13 35  1  0  0  0
 14 15  2  0  0  0
 14 36  1  0  0  0
 15 37  1  0  0  0
 16 17  1  0  0  0
 16 38  1  0  0  0
 16 39  1  0  0  0
 17 40  1  0  0  0
 17 41  1  0  0  0
 42 43  1  0  0  0
 42 44  1  0  0  0
M  CHG  1  42   1
M  END
> <energy>
72.8272

> <chiral flag>
0

> <version>
0

> <i_ionizer_Ion_state_n>
1

> <i_ionizer_Tot_Q>
1

> <s_ionizer_Ion_centers>
42

> <s_ionizer_Ion_types>
N5

> <s_ionizer_Ion_ctrs_in>
7

> <r_ionizer_Ionization_penalty>
0.000148807

> <r_ionizer_Ionization_penalty_charging>
0.000148807

> <r_ionizer_Ionization_penalty_neutral>
0

$$$$
ZINC001258453029
                    3D
 Structure written by MMmdl.
 44 46  0  0  1  0            999 V2000
   -2.8062   -0.5660    1.2519 C   0  0  0  0  0  0
   -2.6505    0.4931    0.1509 C   0  0  2  0  0  0
   -3.3314    0.0359   -1.1618 C   0  0  0  0  0  0
   -2.5417   -0.9401   -1.9941 C   0  0  0  0  0  0
   -3.2823   -1.8633   -2.9321 C   0  0  0  0  0  0
   -2.5511   -2.4269   -1.7437 C   0  0  0  0  0  0
   -0.6922    1.8065    0.8528 C   0  0  0  0  0  0
    0.8334    1.8032    0.7228 C   0  0  0  0  0  0
    1.5397    0.9445    1.7725 C   0  0  0  0  0  0
    2.5692   -0.0177    1.2204 C   0  0  0  0  0  0
    2.1609   -1.2106    0.6038 C   0  0  0  0  0  0
    3.0975   -2.1209    0.1212 C   0  0  0  0  0  0
    4.4581   -1.8547    0.2550 C   0  0  0  0  0  0
    4.8797   -0.6687    0.8577 C   0  0  0  0  0  0
    3.9425    0.2486    1.3382 C   0  0  0  0  0  0
    1.4923    3.1368    0.3729 C   0  0  0  0  0  0
    1.4641    2.0480   -0.6495 C   0  0  0  0  0  0
   -3.8548   -0.8730    1.3386 H   0  0  0  0  0  0
   -2.2102   -1.4643    1.0532 H   0  0  0  0  0  0
   -2.5026   -0.1683    2.2271 H   0  0  0  0  0  0
   -3.1934    1.3913    0.4834 H   0  0  0  0  0  0
   -3.5038    0.9250   -1.7846 H   0  0  0  0  0  0
   -4.3245   -0.3718   -0.9342 H   0  0  0  0  0  0
   -1.6215   -0.4947   -2.3655 H   0  0  0  0  0  0
   -4.3663   -1.8769   -2.9038 H   0  0  0  0  0  0
   -2.8604   -2.0263   -3.9175 H   0  0  0  0  0  0
   -1.6318   -2.9747   -1.9329 H   0  0  0  0  0  0
   -3.1459   -2.8243   -0.9296 H   0  0  0  0  0  0
   -0.9713    1.5967    1.8919 H   0  0  0  0  0  0
   -1.0944    2.8024    0.6235 H   0  0  0  0  0  0
    2.0039    1.5901    2.5295 H   0  0  0  0  0  0
    0.8058    0.3385    2.3226 H   0  0  0  0  0  0
    1.1015   -1.4391    0.5051 H   0  0  0  0  0  0
    2.7649   -3.0454   -0.3475 H   0  0  0  0  0  0
    5.1897   -2.5669   -0.1152 H   0  0  0  0  0  0
    5.9411   -0.4672    0.9672 H   0  0  0  0  0  0
    4.2868    1.1657    1.8107 H   0  0  0  0  0  0
    2.4475    3.3820    0.8183 H   0  0  0  0  0  0
    0.8665    4.0032    0.1845 H   0  0  0  0  0  0
    0.7973    2.1471   -1.5012 H   0  0  0  0  0  0
    2.4090    1.5876   -0.9212 H   0  0  0  0  0  0
   -1.2207    0.8180   -0.1076 N   0  3  0  0  0  0
   -0.6670   -0.0435   -0.0340 H   0  0  0  0  0  0
   -1.1346    1.2002   -1.0567 H   0  0  0  0  0  0
  1  2  1  0  0  0
  1 18  1  0  0  0
  1 19  1  0  0  0
  1 20  1  0  0  0
  2  3  1  0  0  0
  2 21  1  0  0  0
  2 42  1  0  0  0
  3  4  1  0  0  0
  3 22  1  0  0  0
  3 23  1  0  0  0
  4  5  1  0  0  0
  4  6  1  0  0  0
  4 24  1  0  0  0
  5  6  1  0  0  0
  5 25  1  0  0  0
  5 26  1  0  0  0
  6 27  1  0  0  0
  6 28  1  0  0  0
  7  8  1  0  0  0
  7 29  1  0  0  0
  7 30  1  0  0  0
  7 42  1  0  0  0
  8  9  1  0  0  0
  8 16  1  0  0  0
  8 17  1  0  0  0
  9 10  1  0  0  0
  9 31  1  0  0  0
  9 32  1  0  0  0
 10 11  2  0  0  0
 10 15  1  0  0  0
 11 12  1  0  0  0
 11 33  1  0  0  0
 12 13  2  0  0  0
 12 34  1  0  0  0
 13 14  1  0  0  0
 13 35  1  0  0  0
 14 15  2  0  0  0
 14 36  1  0  0  0
 15 37  1  0  0  0
 16 17  1  0  0  0
 16 38  1  0  0  0
 16 39  1  0  0  0
 17 40  1  0  0  0
 17 41  1  0  0  0
 42 43  1  0  0  0
 42 44  1  0  0  0
M  CHG  1  42   1
M  END
> <energy>
72.5479

> <chiral flag>
0

> <version>
0

> <i_ionizer_Ion_state_n>
1

> <i_ionizer_Tot_Q>
1

> <s_ionizer_Ion_centers>
42

> <s_ionizer_Ion_types>
N5

> <s_ionizer_Ion_ctrs_in>
7

> <r_ionizer_Ionization_penalty>
0.000148807

> <r_ionizer_Ionization_penalty_charging>
0.000148807

> <r_ionizer_Ionization_penalty_neutral>
0

$$$$
ZINC001258453196
                    3D
 Structure written by MMmdl.
 43 44  0  0  1  0            999 V2000
   -2.4920    2.3396   -1.2490 C   0  0  0  0  0  0
   -2.3146    1.1364   -0.3175 C   0  0  1  0  0  0
   -2.9943   -0.1033   -0.9475 C   0  0  0  0  0  0
   -3.0934   -1.2643    0.0066 C   0  0  0  0  0  0
   -2.0586   -2.3595    0.0011 C   0  0  0  0  0  0
   -3.4436   -2.6369   -0.5095 C   0  0  0  0  0  0
   -0.1615    1.8784    0.6308 C   0  0  0  0  0  0
    1.2844    1.4532    0.9527 C   0  0  1  0  0  0
    1.3754    0.2692    1.9280 C   0  0  0  0  0  0
    1.8198   -0.9173    1.0854 C   0  0  0  0  0  0
    2.7430   -0.3112    0.0200 C   0  0  0  0  0  0
    2.8101   -1.2122   -1.2172 C   0  0  0  0  0  0
    4.1621   -0.0923    0.5681 C   0  0  0  0  0  0
    2.0802    1.0409   -0.3014 C   0  0  0  0  0  0
   -2.1732    3.2697   -0.7672 H   0  0  0  0  0  0
   -1.9150    2.2170   -2.1717 H   0  0  0  0  0  0
   -3.5451    2.4667   -1.5213 H   0  0  0  0  0  0
   -2.8085    1.3499    0.6380 H   0  0  0  0  0  0
   -2.4650   -0.3957   -1.8636 H   0  0  0  0  0  0
   -4.0145    0.1606   -1.2493 H   0  0  0  0  0  0
   -3.5364   -0.9774    0.9544 H   0  0  0  0  0  0
   -1.2548   -2.3200   -0.7266 H   0  0  0  0  0  0
   -1.7706   -2.7884    0.9536 H   0  0  0  0  0  0
   -4.0965   -3.2556    0.0953 H   0  0  0  0  0  0
   -3.5597   -2.7827   -1.5768 H   0  0  0  0  0  0
   -0.6746    2.1392    1.5632 H   0  0  0  0  0  0
   -0.1103    2.7801    0.0131 H   0  0  0  0  0  0
    1.7752    2.3172    1.4188 H   0  0  0  0  0  0
    0.4406    0.0720    2.4629 H   0  0  0  0  0  0
    2.1372    0.4845    2.6874 H   0  0  0  0  0  0
    0.9454   -1.3912    0.6221 H   0  0  0  0  0  0
    2.3148   -1.6806    1.6946 H   0  0  0  0  0  0
    3.2188   -2.1975   -0.9672 H   0  0  0  0  0  0
    3.4407   -0.7701   -1.9960 H   0  0  0  0  0  0
    1.8149   -1.3705   -1.6506 H   0  0  0  0  0  0
    4.8037    0.3705   -0.1903 H   0  0  0  0  0  0
    4.1665    0.5648    1.4430 H   0  0  0  0  0  0
    4.6223   -1.0413    0.8604 H   0  0  0  0  0  0
    1.4328    0.9582   -1.1801 H   0  0  0  0  0  0
    2.8212    1.8055   -0.5545 H   0  0  0  0  0  0
   -0.8818    0.8035   -0.0907 N   0  3  0  0  0  0
   -0.8270   -0.0596    0.4628 H   0  0  0  0  0  0
   -0.4291    0.6559   -1.0004 H   0  0  0  0  0  0
  1  2  1  0  0  0
  1 15  1  0  0  0
  1 16  1  0  0  0
  1 17  1  0  0  0
  2  3  1  0  0  0
  2 18  1  0  0  0
  2 41  1  0  0  0
  3  4  1  0  0  0
  3 19  1  0  0  0
  3 20  1  0  0  0
  4  5  1  0  0  0
  4  6  1  0  0  0
  4 21  1  0  0  0
  5  6  1  0  0  0
  5 22  1  0  0  0
  5 23  1  0  0  0
  6 24  1  0  0  0
  6 25  1  0  0  0
  7  8  1  0  0  0
  7 26  1  0  0  0
  7 27  1  0  0  0
  7 41  1  0  0  0
  8  9  1  0  0  0
  8 14  1  0  0  0
  8 28  1  0  0  0
  9 10  1  0  0  0
  9 29  1  0  0  0
  9 30  1  0  0  0
 10 11  1  0  0  0
 10 31  1  0  0  0
 10 32  1  0  0  0
 11 12  1  0  0  0
 11 13  1  0  0  0
 11 14  1  0  0  0
 12 33  1  0  0  0
 12 34  1  0  0  0
 12 35  1  0  0  0
 13 36  1  0  0  0
 13 37  1  0  0  0
 13 38  1  0  0  0
 14 39  1  0  0  0
 14 40  1  0  0  0
 41 42  1  0  0  0
 41 43  1  0  0  0
M  CHG  1  41   1
M  END
> <energy>
50.1384

> <chiral flag>
0

> <version>
0

> <i_ionizer_Ion_state_n>
1

> <i_ionizer_Tot_Q>
1

> <s_ionizer_Ion_centers>
41

> <s_ionizer_Ion_types>
N5

> <s_ionizer_Ion_ctrs_in>
7

> <r_ionizer_Ionization_penalty>
0.000148807

> <r_ionizer_Ionization_penalty_charging>
0.000148807

> <r_ionizer_Ionization_penalty_neutral>
0

$$$$
ZINC001258453197
                    3D
 Structure written by MMmdl.
 43 44  0  0  1  0            999 V2000
   -2.4349   -2.4643    0.1290 C   0  0  0  0  0  0
   -1.6922   -1.2835    0.7601 C   0  0  2  0  0  0
   -2.6463   -0.3554    1.5492 C   0  0  0  0  0  0
   -3.7445    0.2729    0.7328 C   0  0  0  0  0  0
   -3.5322    1.5894    0.0300 C   0  0  0  0  0  0
   -4.4167    1.5230    1.2432 C   0  0  0  0  0  0
    0.2568   -1.1522   -0.7318 C   0  0  0  0  0  0
    1.1027   -0.1528   -1.5445 C   0  0  2  0  0  0
    2.4393   -0.7500   -1.9864 C   0  0  0  0  0  0
    3.3471   -0.5969   -0.7695 C   0  0  0  0  0  0
    2.8935    0.7072   -0.0741 C   0  0  0  0  0  0
    3.9257    1.8247   -0.2807 C   0  0  0  0  0  0
    2.7116    0.4855    1.4347 C   0  0  0  0  0  0
    1.5546    1.0844   -0.7517 C   0  0  0  0  0  0
   -1.7342   -3.2129   -0.2533 H   0  0  0  0  0  0
   -3.0724   -2.1496   -0.7035 H   0  0  0  0  0  0
   -3.0684   -2.9606    0.8720 H   0  0  0  0  0  0
   -0.9842   -1.6829    1.4998 H   0  0  0  0  0  0
   -3.1133   -0.9341    2.3558 H   0  0  0  0  0  0
   -2.0507    0.4245    2.0427 H   0  0  0  0  0  0
   -4.3935   -0.4614    0.2684 H   0  0  0  0  0  0
   -4.0045    1.7318   -0.9346 H   0  0  0  0  0  0
   -2.5686    2.0782    0.1281 H   0  0  0  0  0  0
   -5.4875    1.6143    1.0991 H   0  0  0  0  0  0
   -4.0527    1.9714    2.1608 H   0  0  0  0  0  0
    0.8420   -1.5527    0.1008 H   0  0  0  0  0  0
   -0.0089   -1.9998   -1.3744 H   0  0  0  0  0  0
    0.5234    0.1557   -2.4232 H   0  0  0  0  0  0
    2.3633   -1.7902   -2.3168 H   0  0  0  0  0  0
    2.8460   -0.1634   -2.8195 H   0  0  0  0  0  0
    4.4013   -0.5774   -1.0670 H   0  0  0  0  0  0
    3.2183   -1.4629   -0.1086 H   0  0  0  0  0  0
    4.1115    2.0032   -1.3456 H   0  0  0  0  0  0
    4.8844    1.5689    0.1852 H   0  0  0  0  0  0
    3.5786    2.7663    0.1598 H   0  0  0  0  0  0
    2.3772    1.4036    1.9309 H   0  0  0  0  0  0
    1.9684   -0.2896    1.6447 H   0  0  0  0  0  0
    3.6528    0.1748    1.9033 H   0  0  0  0  0  0
    1.7120    1.9032   -1.4668 H   0  0  0  0  0  0
    0.8052    1.4423   -0.0393 H   0  0  0  0  0  0
   -0.9596   -0.4681   -0.2437 N   0  3  0  0  0  0
   -1.5807   -0.2873   -1.0410 H   0  0  0  0  0  0
   -0.6880    0.4232    0.1876 H   0  0  0  0  0  0
  1  2  1  0  0  0
  1 15  1  0  0  0
  1 16  1  0  0  0
  1 17  1  0  0  0
  2  3  1  0  0  0
  2 18  1  0  0  0
  2 41  1  0  0  0
  3  4  1  0  0  0
  3 19  1  0  0  0
  3 20  1  0  0  0
  4  5  1  0  0  0
  4  6  1  0  0  0
  4 21  1  0  0  0
  5  6  1  0  0  0
  5 22  1  0  0  0
  5 23  1  0  0  0
  6 24  1  0  0  0
  6 25  1  0  0  0
  7  8  1  0  0  0
  7 26  1  0  0  0
  7 27  1  0  0  0
  7 41  1  0  0  0
  8  9  1  0  0  0
  8 14  1  0  0  0
  8 28  1  0  0  0
  9 10  1  0  0  0
  9 29  1  0  0  0
  9 30  1  0  0  0
 10 11  1  0  0  0
 10 31  1  0  0  0
 10 32  1  0  0  0
 11 12  1  0  0  0
 11 13  1  0  0  0
 11 14  1  0  0  0
 12 33  1  0  0  0
 12 34  1  0  0  0
 12 35  1  0  0  0
 13 36  1  0  0  0
 13 37  1  0  0  0
 13 38  1  0  0  0
 14 39  1  0  0  0
 14 40  1  0  0  0
 41 42  1  0  0  0
 41 43  1  0  0  0
M  CHG  1  41   1
M  END
> <energy>
51.4111

> <chiral flag>
0

> <version>
0

> <i_ionizer_Ion_state_n>
1

> <i_ionizer_Tot_Q>
1

> <s_ionizer_Ion_centers>
41

> <s_ionizer_Ion_types>
N5

> <s_ionizer_Ion_ctrs_in>
7

> <r_ionizer_Ionization_penalty>
0.000148807

> <r_ionizer_Ionization_penalty_charging>
0.000148807

> <r_ionizer_Ionization_penalty_neutral>
0

$$$$
ZINC001258453198
                    3D
 Structure written by MMmdl.
 43 44  0  0  1  0            999 V2000
   -2.7795   -2.5056    1.5038 C   0  0  0  0  0  0
   -2.1022   -1.6630    0.4156 C   0  0  1  0  0  0
   -2.4455   -0.1714    0.6295 C   0  0  0  0  0  0
   -2.7286    0.5439   -0.6634 C   0  0  0  0  0  0
   -4.1353    0.6274   -1.1961 C   0  0  0  0  0  0
   -3.4686    1.8557   -0.6406 C   0  0  0  0  0  0
    0.1192   -1.5740   -0.6666 C   0  0  0  0  0  0
    0.8975   -0.2664   -0.4876 C   0  0  2  0  0  0
    1.7474    0.0719   -1.7097 C   0  0  0  0  0  0
    2.6648    1.1787   -1.2034 C   0  0  0  0  0  0
    2.9278    0.8518    0.2859 C   0  0  0  0  0  0
    4.3757    0.3944    0.5007 C   0  0  0  0  0  0
    2.6562    2.0857    1.1584 C   0  0  0  0  0  0
    1.9428   -0.2904    0.6315 C   0  0  0  0  0  0
   -3.8686   -2.3944    1.4558 H   0  0  0  0  0  0
   -2.5544   -3.5708    1.3758 H   0  0  0  0  0  0
   -2.4519   -2.2068    2.5064 H   0  0  0  0  0  0
   -2.4969   -2.0159   -0.5460 H   0  0  0  0  0  0
   -3.3203   -0.0786    1.2859 H   0  0  0  0  0  0
   -1.6332    0.3447    1.1548 H   0  0  0  0  0  0
   -1.9236    0.4477   -1.3820 H   0  0  0  0  0  0
   -4.2759    0.5688   -2.2696 H   0  0  0  0  0  0
   -4.9402    0.1833   -0.6212 H   0  0  0  0  0  0
   -3.8204    2.2386    0.3110 H   0  0  0  0  0  0
   -3.1560    2.6251   -1.3379 H   0  0  0  0  0  0
   -0.4991   -1.5272   -1.5711 H   0  0  0  0  0  0
    0.8363   -2.3842   -0.8487 H   0  0  0  0  0  0
    0.2042    0.5631   -0.3061 H   0  0  0  0  0  0
    2.3436   -0.7924   -2.0284 H   0  0  0  0  0  0
    1.1428    0.3982   -2.5615 H   0  0  0  0  0  0
    3.5812    1.2354   -1.8000 H   0  0  0  0  0  0
    2.1518    2.1430   -1.3093 H   0  0  0  0  0  0
    5.0834    1.1931    0.2520 H   0  0  0  0  0  0
    4.6168   -0.4694   -0.1289 H   0  0  0  0  0  0
    4.5472    0.1056    1.5435 H   0  0  0  0  0  0
    2.8334    1.8676    2.2174 H   0  0  0  0  0  0
    3.3068    2.9207    0.8746 H   0  0  0  0  0  0
    1.6181    2.4226    1.0594 H   0  0  0  0  0  0
    1.4823   -0.1611    1.6168 H   0  0  0  0  0  0
    2.4584   -1.2593    0.6406 H   0  0  0  0  0  0
   -0.6496   -1.9785    0.5339 N   0  3  0  0  0  0
   -0.2706   -1.4834    1.3497 H   0  0  0  0  0  0
   -0.5424   -2.9908    0.6677 H   0  0  0  0  0  0
  1  2  1  0  0  0
  1 15  1  0  0  0
  1 16  1  0  0  0
  1 17  1  0  0  0
  2  3  1  0  0  0
  2 18  1  0  0  0
  2 41  1  0  0  0
  3  4  1  0  0  0
  3 19  1  0  0  0
  3 20  1  0  0  0
  4  5  1  0  0  0
  4  6  1  0  0  0
  4 21  1  0  0  0
  5  6  1  0  0  0
  5 22  1  0  0  0
  5 23  1  0  0  0
  6 24  1  0  0  0
  6 25  1  0  0  0
  7  8  1  0  0  0
  7 26  1  0  0  0
  7 27  1  0  0  0
  7 41  1  0  0  0
  8  9  1  0  0  0
  8 14  1  0  0  0
  8 28  1  0  0  0
  9 10  1  0  0  0
  9 29  1  0  0  0
  9 30  1  0  0  0
 10 11  1  0  0  0
 10 31  1  0  0  0
 10 32  1  0  0  0
 11 12  1  0  0  0
 11 13  1  0  0  0
 11 14  1  0  0  0
 12 33  1  0  0  0
 12 34  1  0  0  0
 12 35  1  0  0  0
 13 36  1  0  0  0
 13 37  1  0  0  0
 13 38  1  0  0  0
 14 39  1  0  0  0
 14 40  1  0  0  0
 41 42  1  0  0  0
 41 43  1  0  0  0
M  CHG  1  41   1
M  END
> <energy>
53.8462

> <chiral flag>
0

> <version>
0

> <i_ionizer_Ion_state_n>
1

> <i_ionizer_Tot_Q>
1

> <s_ionizer_Ion_centers>
41

> <s_ionizer_Ion_types>
N5

> <s_ionizer_Ion_ctrs_in>
7

> <r_ionizer_Ionization_penalty>
0.000148807

> <r_ionizer_Ionization_penalty_charging>
0.000148807

> <r_ionizer_Ionization_penalty_neutral>
0

$$$$
ZINC001258453199
                    3D
 Structure written by MMmdl.
 43 44  0  0  1  0            999 V2000
   -2.1685   -0.3881   -2.5190 C   0  0  0  0  0  0
   -1.5599   -0.4599   -1.1116 C   0  0  2  0  0  0
   -2.5844   -1.0026   -0.0850 C   0  0  0  0  0  0
   -3.7141   -0.0611    0.2466 C   0  0  0  0  0  0
   -3.7794    0.6039    1.5974 C   0  0  0  0  0  0
   -4.7591   -0.4817    1.2547 C   0  0  0  0  0  0
   -0.1295    0.8645    0.3912 C   0  0  0  0  0  0
    1.2516    1.4749    0.0732 C   0  0  1  0  0  0
    2.1381    1.5840    1.3133 C   0  0  0  0  0  0
    2.7117    0.1830    1.4789 C   0  0  0  0  0  0
    2.9486   -0.3279    0.0407 C   0  0  0  0  0  0
    4.4375   -0.2266   -0.3262 C   0  0  0  0  0  0
    2.4994   -1.7880   -0.1019 C   0  0  0  0  0  0
    2.1060    0.6065   -0.8657 C   0  0  0  0  0  0
   -2.6037   -1.3521   -2.8022 H   0  0  0  0  0  0
   -1.3982   -0.1469   -3.2617 H   0  0  0  0  0  0
   -2.9502    0.3762   -2.5955 H   0  0  0  0  0  0
   -0.7367   -1.1849   -1.1732 H   0  0  0  0  0  0
   -2.0566   -1.2872    0.8341 H   0  0  0  0  0  0
   -3.0172   -1.9307   -0.4814 H   0  0  0  0  0  0
   -4.0715    0.4954   -0.6127 H   0  0  0  0  0  0
   -3.0085    0.3828    2.3264 H   0  0  0  0  0  0
   -4.1378    1.6259    1.6349 H   0  0  0  0  0  0
   -4.6520   -1.4408    1.7493 H   0  0  0  0  0  0
   -5.7880   -0.1948    1.0638 H   0  0  0  0  0  0
   -0.6160    1.4689    1.1649 H   0  0  0  0  0  0
   -0.0109   -0.1376    0.8144 H   0  0  0  0  0  0
    1.1008    2.4706   -0.3629 H   0  0  0  0  0  0
    1.5963    1.9209    2.2027 H   0  0  0  0  0  0
    2.9509    2.2961    1.1249 H   0  0  0  0  0  0
    1.9856   -0.4465    2.0064 H   0  0  0  0  0  0
    3.6240    0.1956    2.0846 H   0  0  0  0  0  0
    4.6126   -0.5350   -1.3628 H   0  0  0  0  0  0
    5.0472   -0.8661    0.3219 H   0  0  0  0  0  0
    4.8050    0.8000   -0.2163 H   0  0  0  0  0  0
    1.4354   -1.9054    0.1283 H   0  0  0  0  0  0
    2.6558   -2.1517   -1.1240 H   0  0  0  0  0  0
    3.0586   -2.4419    0.5769 H   0  0  0  0  0  0
    1.5115    0.0555   -1.6013 H   0  0  0  0  0  0
    2.7645    1.2683   -1.4433 H   0  0  0  0  0  0
   -1.0071    0.8866   -0.8043 N   0  3  0  0  0  0
   -0.4616    1.2135   -1.6104 H   0  0  0  0  0  0
   -1.7855    1.5338   -0.6326 H   0  0  0  0  0  0
  1  2  1  0  0  0
  1 15  1  0  0  0
  1 16  1  0  0  0
  1 17  1  0  0  0
  2  3  1  0  0  0
  2 18  1  0  0  0
  2 41  1  0  0  0
  3  4  1  0  0  0
  3 19  1  0  0  0
  3 20  1  0  0  0
  4  5  1  0  0  0
  4  6  1  0  0  0
  4 21  1  0  0  0
  5  6  1  0  0  0
  5 22  1  0  0  0
  5 23  1  0  0  0
  6 24  1  0  0  0
  6 25  1  0  0  0
  7  8  1  0  0  0
  7 26  1  0  0  0
  7 27  1  0  0  0
  7 41  1  0  0  0
  8  9  1  0  0  0
  8 14  1  0  0  0
  8 28  1  0  0  0
  9 10  1  0  0  0
  9 29  1  0  0  0
  9 30  1  0  0  0
 10 11  1  0  0  0
 10 31  1  0  0  0
 10 32  1  0  0  0
 11 12  1  0  0  0
 11 13  1  0  0  0
 11 14  1  0  0  0
 12 33  1  0  0  0
 12 34  1  0  0  0
 12 35  1  0  0  0
 13 36  1  0  0  0
 13 37  1  0  0  0
 13 38  1  0  0  0
 14 39  1  0  0  0
 14 40  1  0  0  0
 41 42  1  0  0  0
 41 43  1  0  0  0
M  CHG  1  41   1
M  END
> <energy>
54.4832

> <chiral flag>
0

> <version>
0

> <i_ionizer_Ion_state_n>
1

> <i_ionizer_Tot_Q>
1

> <s_ionizer_Ion_centers>
41

> <s_ionizer_Ion_types>
N5

> <s_ionizer_Ion_ctrs_in>
7

> <r_ionizer_Ionization_penalty>
0.000148807

> <r_ionizer_Ionization_penalty_charging>
0.000148807

> <r_ionizer_Ionization_penalty_neutral>
0

$$$$
ZINC001258453374
                    3D
 Structure written by MMmdl.
 41 43  0  0  1  0            999 V2000
   -1.5813   -2.4079   -1.3577 C   0  0  0  0  0  0
   -1.6332   -1.3490   -0.2529 C   0  0  2  0  0  0
   -3.0270   -0.6748   -0.2547 C   0  0  0  0  0  0
   -3.2567    0.1843    0.9623 C   0  0  0  0  0  0
   -3.0241    1.6740    0.9194 C   0  0  0  0  0  0
   -4.4262    1.1361    0.9864 C   0  0  0  0  0  0
    0.7520   -0.7081   -0.0060 C   0  0  2  0  0  0
    0.8220   -0.5650    1.5288 C   0  0  0  0  0  0
    2.2606   -0.6510    2.0211 C   0  0  0  0  0  0
    3.0753    0.5135    1.4698 C   0  0  0  0  0  0
    2.9020    0.6933   -0.0150 C   0  0  0  0  0  0
    3.8365    1.4679   -0.7161 C   0  0  0  0  0  0
    4.8599    2.0326   -0.0572 F   0  0  0  0  0  0
    3.7347    1.6708   -2.0880 C   0  0  0  0  0  0
    2.6842    1.0912   -2.7892 C   0  0  0  0  0  0
    1.7331    0.3306   -2.1066 C   0  0  0  0  0  0
    1.8083    0.1414   -0.7109 C   0  0  0  0  0  0
   -2.3676   -3.1570   -1.2128 H   0  0  0  0  0  0
   -0.6253   -2.9401   -1.3657 H   0  0  0  0  0  0
   -1.7268   -1.9601   -2.3476 H   0  0  0  0  0  0
   -1.4983   -1.8403    0.7162 H   0  0  0  0  0  0
   -3.1655   -0.0907   -1.1743 H   0  0  0  0  0  0
   -3.8028   -1.4517   -0.2603 H   0  0  0  0  0  0
   -3.0423   -0.3430    1.8852 H   0  0  0  0  0  0
   -2.7068    2.1320   -0.0104 H   0  0  0  0  0  0
   -2.6177    2.1477    1.8053 H   0  0  0  0  0  0
   -5.0449    1.2242    0.1002 H   0  0  0  0  0  0
   -4.9685    1.2550    1.9178 H   0  0  0  0  0  0
    0.9851   -1.7476   -0.2709 H   0  0  0  0  0  0
    0.3924    0.3940    1.8491 H   0  0  0  0  0  0
    0.2332   -1.3534    2.0124 H   0  0  0  0  0  0
    2.2857   -0.6296    3.1160 H   0  0  0  0  0  0
    2.7028   -1.6046    1.7080 H   0  0  0  0  0  0
    2.7727    1.4437    1.9667 H   0  0  0  0  0  0
    4.1321    0.3409    1.7050 H   0  0  0  0  0  0
    4.4759    2.2773   -2.5974 H   0  0  0  0  0  0
    2.5972    1.2334   -3.8627 H   0  0  0  0  0  0
    0.9120   -0.1133   -2.6679 H   0  0  0  0  0  0
   -0.5981   -0.3068   -0.5043 N   0  3  0  0  0  0
   -0.5391   -0.1387   -1.5155 H   0  0  0  0  0  0
   -0.8803    0.5586   -0.0293 H   0  0  0  0  0  0
  1  2  1  0  0  0
  1 18  1  0  0  0
  1 19  1  0  0  0
  1 20  1  0  0  0
  2  3  1  0  0  0
  2 21  1  0  0  0
  2 39  1  0  0  0
  3  4  1  0  0  0
  3 22  1  0  0  0
  3 23  1  0  0  0
  4  5  1  0  0  0
  4  6  1  0  0  0
  4 24  1  0  0  0
  5  6  1  0  0  0
  5 25  1  0  0  0
  5 26  1  0  0  0
  6 27  1  0  0  0
  6 28  1  0  0  0
  7  8  1  0  0  0
  7 17  1  0  0  0
  7 29  1  0  0  0
  7 39  1  0  0  0
  8  9  1  0  0  0
  8 30  1  0  0  0
  8 31  1  0  0  0
  9 10  1  0  0  0
  9 32  1  0  0  0
  9 33  1  0  0  0
 10 11  1  0  0  0
 10 34  1  0  0  0
 10 35  1  0  0  0
 11 12  2  0  0  0
 11 17  1  0  0  0
 12 13  1  0  0  0
 12 14  1  0  0  0
 14 15  2  0  0  0
 14 36  1  0  0  0
 15 16  1  0  0  0
 15 37  1  0  0  0
 16 17  2  0  0  0
 16 38  1  0  0  0
 39 40  1  0  0  0
 39 41  1  0  0  0
M  CHG  1  39   1
M  END
> <energy>
44.1606

> <chiral flag>
0

> <version>
0

> <i_ionizer_Ion_state_n>
1

> <i_ionizer_Tot_Q>
1

> <s_ionizer_Ion_centers>
39

> <s_ionizer_Ion_types>
N5

> <s_ionizer_Ion_ctrs_in>
7

> <r_ionizer_Ionization_penalty>
0.000148807

> <r_ionizer_Ionization_penalty_charging>
0.000148807

> <r_ionizer_Ionization_penalty_neutral>
0

$$$$
ZINC001258453375
                    3D
 Structure written by MMmdl.
 41 43  0  0  1  0            999 V2000
   -2.5685   -1.9742    0.7361 C   0  0  0  0  0  0
   -1.3207   -1.0905    0.8805 C   0  0  2  0  0  0
   -1.7240    0.4036    0.9213 C   0  0  0  0  0  0
   -2.1919    0.9603   -0.3975 C   0  0  0  0  0  0
   -3.6526    0.9967   -0.7645 C   0  0  0  0  0  0
   -2.9342    2.2724   -0.4248 C   0  0  0  0  0  0
    1.0302   -1.5141    0.1392 C   0  0  1  0  0  0
    1.7878   -2.0273   -1.1048 C   0  0  0  0  0  0
    1.7558   -0.9947   -2.2311 C   0  0  0  0  0  0
    2.3925    0.3280   -1.8057 C   0  0  0  0  0  0
    2.2411    0.6742   -0.3463 C   0  0  0  0  0  0
    2.7778    1.8851    0.1112 C   0  0  0  0  0  0
    3.3473    2.7314   -0.7594 F   0  0  0  0  0  0
    2.7582    2.2300    1.4583 C   0  0  0  0  0  0
    2.2078    1.3507    2.3836 C   0  0  0  0  0  0
    1.6661    0.1386    1.9503 C   0  0  0  0  0  0
    1.6569   -0.2068    0.5848 C   0  0  0  0  0  0
   -2.3009   -3.0354    0.8094 H   0  0  0  0  0  0
   -3.0729   -1.8228   -0.2242 H   0  0  0  0  0  0
   -3.2883   -1.7620    1.5347 H   0  0  0  0  0  0
   -0.8771   -1.3593    1.8465 H   0  0  0  0  0  0
   -0.8727    1.0083    1.2485 H   0  0  0  0  0  0
   -2.5000    0.5432    1.6858 H   0  0  0  0  0  0
   -1.4647    0.8033   -1.1875 H   0  0  0  0  0  0
   -4.3804    0.6224   -0.0541 H   0  0  0  0  0  0
   -3.9113    0.8185   -1.8025 H   0  0  0  0  0  0
   -3.1787    2.7540    0.5152 H   0  0  0  0  0  0
   -2.7084    2.9616   -1.2310 H   0  0  0  0  0  0
    1.1520   -2.2712    0.9247 H   0  0  0  0  0  0
    2.8313   -2.2474   -0.8426 H   0  0  0  0  0  0
    1.3506   -2.9695   -1.4581 H   0  0  0  0  0  0
    0.7205   -0.8143   -2.5467 H   0  0  0  0  0  0
    2.2753   -1.3843   -3.1141 H   0  0  0  0  0  0
    1.9809    1.1358   -2.4229 H   0  0  0  0  0  0
    3.4674    0.2707   -2.0202 H   0  0  0  0  0  0
    3.1861    3.1763    1.7744 H   0  0  0  0  0  0
    2.1968    1.6064    3.4399 H   0  0  0  0  0  0
    1.2369   -0.5378    2.6865 H   0  0  0  0  0  0
   -0.4094   -1.4035   -0.2648 N   0  3  0  0  0  0
   -0.7015   -2.2961   -0.6797 H   0  0  0  0  0  0
   -0.4957   -0.6566   -0.9640 H   0  0  0  0  0  0
  1  2  1  0  0  0
  1 18  1  0  0  0
  1 19  1  0  0  0
  1 20  1  0  0  0
  2  3  1  0  0  0
  2 21  1  0  0  0
  2 39  1  0  0  0
  3  4  1  0  0  0
  3 22  1  0  0  0
  3 23  1  0  0  0
  4  5  1  0  0  0
  4  6  1  0  0  0
  4 24  1  0  0  0
  5  6  1  0  0  0
  5 25  1  0  0  0
  5 26  1  0  0  0
  6 27  1  0  0  0
  6 28  1  0  0  0
  7  8  1  0  0  0
  7 17  1  0  0  0
  7 29  1  0  0  0
  7 39  1  0  0  0
  8  9  1  0  0  0
  8 30  1  0  0  0
  8 31  1  0  0  0
  9 10  1  0  0  0
  9 32  1  0  0  0
  9 33  1  0  0  0
 10 11  1  0  0  0
 10 34  1  0  0  0
 10 35  1  0  0  0
 11 12  2  0  0  0
 11 17  1  0  0  0
 12 13  1  0  0  0
 12 14  1  0  0  0
 14 15  2  0  0  0
 14 36  1  0  0  0
 15 16  1  0  0  0
 15 37  1  0  0  0
 16 17  2  0  0  0
 16 38  1  0  0  0
 39 40  1  0  0  0
 39 41  1  0  0  0
M  CHG  1  39   1
M  END
> <energy>
48.5642

> <chiral flag>
0

> <version>
0

> <i_ionizer_Ion_state_n>
1

> <i_ionizer_Tot_Q>
1

> <s_ionizer_Ion_centers>
39

> <s_ionizer_Ion_types>
N5

> <s_ionizer_Ion_ctrs_in>
7

> <r_ionizer_Ionization_penalty>
0.000148807

> <r_ionizer_Ionization_penalty_charging>
0.000148807

> <r_ionizer_Ionization_penalty_neutral>
0

$$$$
ZINC001258453376
                    3D
 Structure written by MMmdl.
 41 43  0  0  1  0            999 V2000
   -2.7613    1.6277    1.0315 C   0  0  0  0  0  0
   -1.4312    0.8670    0.9764 C   0  0  1  0  0  0
   -1.6100   -0.6354    1.2821 C   0  0  0  0  0  0
   -2.6791   -1.3083    0.4644 C   0  0  0  0  0  0
   -2.4324   -1.7297   -0.9601 C   0  0  0  0  0  0
   -2.5461   -2.7683    0.1184 C   0  0  0  0  0  0
    0.5907    1.6141   -0.2184 C   0  0  2  0  0  0
    1.1155    2.0568   -1.6027 C   0  0  0  0  0  0
    1.5419    0.9173   -2.5488 C   0  0  0  0  0  0
    1.6484   -0.4620   -1.8965 C   0  0  0  0  0  0
    2.1235   -0.3761   -0.4745 C   0  0  0  0  0  0
    3.0351   -1.2939    0.0466 C   0  0  0  0  0  0
    3.5552   -2.2496   -0.7367 F   0  0  0  0  0  0
    3.4228   -1.2364    1.3825 C   0  0  0  0  0  0
    2.8918   -0.2522    2.2142 C   0  0  0  0  0  0
    1.9784    0.6747    1.7075 C   0  0  0  0  0  0
    1.5832    0.6198    0.3613 C   0  0  0  0  0  0
   -2.5961    2.7103    0.9689 H   0  0  0  0  0  0
   -3.2801    1.4254    1.9782 H   0  0  0  0  0  0
   -3.4342    1.3475    0.2131 H   0  0  0  0  0  0
   -0.8219    1.2904    1.7819 H   0  0  0  0  0  0
   -1.8800   -0.7498    2.3416 H   0  0  0  0  0  0
   -0.6536   -1.1611    1.1643 H   0  0  0  0  0  0
   -3.6717   -0.9517    0.7116 H   0  0  0  0  0  0
   -1.4565   -1.5644   -1.3963 H   0  0  0  0  0  0
   -3.2475   -1.6357   -1.6678 H   0  0  0  0  0  0
   -3.4386   -3.3836    0.1317 H   0  0  0  0  0  0
   -1.6407   -3.2893    0.4074 H   0  0  0  0  0  0
    0.5611    2.5191    0.4064 H   0  0  0  0  0  0
    1.9986    2.6955   -1.4418 H   0  0  0  0  0  0
    0.3835    2.7017   -2.1089 H   0  0  0  0  0  0
    2.5270    1.1819   -2.9620 H   0  0  0  0  0  0
    0.8650    0.8616   -3.4126 H   0  0  0  0  0  0
    2.3097   -1.0916   -2.5030 H   0  0  0  0  0  0
    0.6674   -0.9493   -1.9005 H   0  0  0  0  0  0
    4.1321   -1.9613    1.7615 H   0  0  0  0  0  0
    3.1947   -0.2059    3.2593 H   0  0  0  0  0  0
    1.5597    1.4254    2.3749 H   0  0  0  0  0  0
   -0.7808    1.0530   -0.3538 N   0  3  0  0  0  0
   -0.7236    0.1435   -0.8270 H   0  0  0  0  0  0
   -1.3501    1.6963   -0.9162 H   0  0  0  0  0  0
  1  2  1  0  0  0
  1 18  1  0  0  0
  1 19  1  0  0  0
  1 20  1  0  0  0
  2  3  1  0  0  0
  2 21  1  0  0  0
  2 39  1  0  0  0
  3  4  1  0  0  0
  3 22  1  0  0  0
  3 23  1  0  0  0
  4  5  1  0  0  0
  4  6  1  0  0  0
  4 24  1  0  0  0
  5  6  1  0  0  0
  5 25  1  0  0  0
  5 26  1  0  0  0
  6 27  1  0  0  0
  6 28  1  0  0  0
  7  8  1  0  0  0
  7 17  1  0  0  0
  7 29  1  0  0  0
  7 39  1  0  0  0
  8  9  1  0  0  0
  8 30  1  0  0  0
  8 31  1  0  0  0
  9 10  1  0  0  0
  9 32  1  0  0  0
  9 33  1  0  0  0
 10 11  1  0  0  0
 10 34  1  0  0  0
 10 35  1  0  0  0
 11 12  2  0  0  0
 11 17  1  0  0  0
 12 13  1  0  0  0
 12 14  1  0  0  0
 14 15  2  0  0  0
 14 36  1  0  0  0
 15 16  1  0  0  0
 15 37  1  0  0  0
 16 17  2  0  0  0
 16 38  1  0  0  0
 39 40  1  0  0  0
 39 41  1  0  0  0
M  CHG  1  39   1
M  END
> <energy>
52.1439

> <chiral flag>
0

> <version>
0

> <i_ionizer_Ion_state_n>
1

> <i_ionizer_Tot_Q>
1

> <s_ionizer_Ion_centers>
39

> <s_ionizer_Ion_types>
N5

> <s_ionizer_Ion_ctrs_in>
7

> <r_ionizer_Ionization_penalty>
0.000148807

> <r_ionizer_Ionization_penalty_charging>
0.000148807

> <r_ionizer_Ionization_penalty_neutral>
0

$$$$
ZINC001258453377
                    3D
 Structure written by MMmdl.
 41 43  0  0  1  0            999 V2000
   -2.3512    0.6821    2.0276 C   0  0  0  0  0  0
   -1.8399   -0.4428    1.1218 C   0  0  1  0  0  0
   -2.1334   -0.1246   -0.3607 C   0  0  0  0  0  0
   -1.8493   -1.2800   -1.2859 C   0  0  0  0  0  0
   -2.5297   -1.3482   -2.6306 C   0  0  0  0  0  0
   -1.0607   -1.0575   -2.5525 C   0  0  0  0  0  0
    0.5547    0.1305    1.6954 C   0  0  1  0  0  0
    1.8270   -0.5628    2.2354 C   0  0  0  0  0  0
    2.6033   -1.3856    1.1944 C   0  0  0  0  0  0
    2.2482   -1.0772   -0.2695 C   0  0  0  0  0  0
    1.8247    0.3494   -0.4672 C   0  0  0  0  0  0
    2.1848    1.0730   -1.6028 C   0  0  0  0  0  0
    2.9422    0.5062   -2.5510 F   0  0  0  0  0  0
    1.7735    2.3894   -1.7727 C   0  0  0  0  0  0
    0.9955    3.0079   -0.7945 C   0  0  0  0  0  0
    0.6027    2.2906    0.3352 C   0  0  0  0  0  0
    0.9875    0.9505    0.4951 C   0  0  0  0  0  0
   -3.4323    0.8129    1.8973 H   0  0  0  0  0  0
   -1.8808    1.6424    1.7971 H   0  0  0  0  0  0
   -2.1700    0.4501    3.0825 H   0  0  0  0  0  0
   -2.4590   -1.3178    1.3655 H   0  0  0  0  0  0
   -3.1979    0.1279   -0.4519 H   0  0  0  0  0  0
   -1.5867    0.7660   -0.6771 H   0  0  0  0  0  0
   -1.7124   -2.2204   -0.7636 H   0  0  0  0  0  0
   -2.8367   -2.3229   -2.9941 H   0  0  0  0  0  0
   -3.1896   -0.5391   -2.9220 H   0  0  0  0  0  0
   -0.7246   -0.0522   -2.7806 H   0  0  0  0  0  0
   -0.3632   -1.8359   -2.8475 H   0  0  0  0  0  0
    0.2017    0.7890    2.4975 H   0  0  0  0  0  0
    1.5926   -1.1944    3.1003 H   0  0  0  0  0  0
    2.5050    0.2151    2.6155 H   0  0  0  0  0  0
    2.4607   -2.4592    1.3758 H   0  0  0  0  0  0
    3.6736   -1.1975    1.3539 H   0  0  0  0  0  0
    1.4267   -1.7286   -0.5934 H   0  0  0  0  0  0
    3.1124   -1.3283   -0.8948 H   0  0  0  0  0  0
    2.0631    2.9299   -2.6665 H   0  0  0  0  0  0
    0.6861    4.0415   -0.9145 H   0  0  0  0  0  0
   -0.0128    2.7799    1.0882 H   0  0  0  0  0  0
   -0.4419   -0.9495    1.3767 N   0  3  0  0  0  0
   -0.4748   -1.6016    2.1691 H   0  0  0  0  0  0
   -0.1211   -1.4465    0.5375 H   0  0  0  0  0  0
  1  2  1  0  0  0
  1 18  1  0  0  0
  1 19  1  0  0  0
  1 20  1  0  0  0
  2  3  1  0  0  0
  2 21  1  0  0  0
  2 39  1  0  0  0
  3  4  1  0  0  0
  3 22  1  0  0  0
  3 23  1  0  0  0
  4  5  1  0  0  0
  4  6  1  0  0  0
  4 24  1  0  0  0
  5  6  1  0  0  0
  5 25  1  0  0  0
  5 26  1  0  0  0
  6 27  1  0  0  0
  6 28  1  0  0  0
  7  8  1  0  0  0
  7 17  1  0  0  0
  7 29  1  0  0  0
  7 39  1  0  0  0
  8  9  1  0  0  0
  8 30  1  0  0  0
  8 31  1  0  0  0
  9 10  1  0  0  0
  9 32  1  0  0  0
  9 33  1  0  0  0
 10 11  1  0  0  0
 10 34  1  0  0  0
 10 35  1  0  0  0
 11 12  2  0  0  0
 11 17  1  0  0  0
 12 13  1  0  0  0
 12 14  1  0  0  0
 14 15  2  0  0  0
 14 36  1  0  0  0
 15 16  1  0  0  0
 15 37  1  0  0  0
 16 17  2  0  0  0
 16 38  1  0  0  0
 39 40  1  0  0  0
 39 41  1  0  0  0
M  CHG  1  39   1
M  END
> <energy>
54.5952

> <chiral flag>
0

> <version>
0

> <i_ionizer_Ion_state_n>
1

> <i_ionizer_Tot_Q>
1

> <s_ionizer_Ion_centers>
39

> <s_ionizer_Ion_types>
N5

> <s_ionizer_Ion_ctrs_in>
7

> <r_ionizer_Ionization_penalty>
0.000148807

> <r_ionizer_Ionization_penalty_charging>
0.000148807

> <r_ionizer_Ionization_penalty_neutral>
0

$$$$
ZINC001258453396
                    3D
 Structure written by MMmdl.
 44 46  0  0  1  0            999 V2000
   -3.2122    1.9387   -0.7042 C   0  0  0  0  0  0
   -2.1211    0.8588   -0.7507 C   0  0  2  0  0  0
   -2.5759   -0.4180   -0.0013 C   0  0  0  0  0  0
   -3.8705   -0.9998   -0.5037 C   0  0  0  0  0  0
   -5.1557   -0.7659    0.2538 C   0  0  0  0  0  0
   -4.5103   -2.1223    0.2766 C   0  0  0  0  0  0
    0.3125    0.6703   -0.4255 C   0  0  0  0  0  0
    1.4291    0.9608    0.5759 C   0  0  0  0  0  0
    2.8329    0.9455   -0.0143 C   0  0  0  0  0  0
    3.2125   -0.3859   -0.6579 C   0  0  0  0  0  0
    4.7085   -0.5124   -1.0537 C   0  0  0  0  0  0
    4.6391   -1.9877   -0.6222 C   0  0  0  0  0  0
    3.4415   -1.6081    0.2695 C   0  0  0  0  0  0
    1.2520    0.4269    1.9877 C   0  0  0  0  0  0
    1.2080    1.9057    1.7535 C   0  0  0  0  0  0
   -4.0979    1.6191   -1.2616 H   0  0  0  0  0  0
   -2.8698    2.8739   -1.1632 H   0  0  0  0  0  0
   -3.5223    2.1538    0.3242 H   0  0  0  0  0  0
   -1.9263    0.6322   -1.8082 H   0  0  0  0  0  0
   -2.6457   -0.2060    1.0751 H   0  0  0  0  0  0
   -1.8168   -1.1994   -0.1137 H   0  0  0  0  0  0
   -3.9073   -1.0755   -1.5845 H   0  0  0  0  0  0
   -6.0745   -0.6603   -0.3107 H   0  0  0  0  0  0
   -5.1313   -0.1785    1.1654 H   0  0  0  0  0  0
   -4.0329   -2.4472    1.1942 H   0  0  0  0  0  0
   -4.9987   -2.9188   -0.2738 H   0  0  0  0  0  0
    0.6389    0.9376   -1.4372 H   0  0  0  0  0  0
    0.1472   -0.4115   -0.4170 H   0  0  0  0  0  0
    3.5640    1.1969    0.7657 H   0  0  0  0  0  0
    2.9007    1.7437   -0.7643 H   0  0  0  0  0  0
    2.5591   -0.6317   -1.5083 H   0  0  0  0  0  0
    4.9321   -0.3431   -2.1107 H   0  0  0  0  0  0
    5.3938    0.0865   -0.4444 H   0  0  0  0  0  0
    5.5175   -2.3689   -0.0953 H   0  0  0  0  0  0
    4.3856   -2.6768   -1.4339 H   0  0  0  0  0  0
    2.6257   -2.3373    0.2959 H   0  0  0  0  0  0
    3.7276   -1.3543    1.2960 H   0  0  0  0  0  0
    2.1069    0.0290    2.5201 H   0  0  0  0  0  0
    0.3184   -0.0672    2.2339 H   0  0  0  0  0  0
    2.0444    2.4999    2.1036 H   0  0  0  0  0  0
    0.2528    2.4003    1.8903 H   0  0  0  0  0  0
   -0.9117    1.4392   -0.1017 N   0  3  0  0  0  0
   -0.7921    2.4057   -0.4267 H   0  0  0  0  0  0
   -1.0468    1.4346    0.9162 H   0  0  0  0  0  0
  1  2  1  0  0  0
  1 16  1  0  0  0
  1 17  1  0  0  0
  1 18  1  0  0  0
  2  3  1  0  0  0
  2 19  1  0  0  0
  2 42  1  0  0  0
  3  4  1  0  0  0
  3 20  1  0  0  0
  3 21  1  0  0  0
  4  5  1  0  0  0
  4  6  1  0  0  0
  4 22  1  0  0  0
  5  6  1  0  0  0
  5 23  1  0  0  0
  5 24  1  0  0  0
  6 25  1  0  0  0
  6 26  1  0  0  0
  7  8  1  0  0  0
  7 27  1  0  0  0
  7 28  1  0  0  0
  7 42  1  0  0  0
  8  9  1  0  0  0
  8 14  1  0  0  0
  8 15  1  0  0  0
  9 10  1  0  0  0
  9 29  1  0  0  0
  9 30  1  0  0  0
 10 11  1  0  0  0
 10 13  1  0  0  0
 10 31  1  0  0  0
 11 12  1  0  0  0
 11 32  1  0  0  0
 11 33  1  0  0  0
 12 13  1  0  0  0
 12 34  1  0  0  0
 12 35  1  0  0  0
 13 36  1  0  0  0
 13 37  1  0  0  0
 14 15  1  0  0  0
 14 38  1  0  0  0
 14 39  1  0  0  0
 15 40  1  0  0  0
 15 41  1  0  0  0
 42 43  1  0  0  0
 42 44  1  0  0  0
M  CHG  1  42   1
M  END
> <energy>
57.5757

> <chiral flag>
0

> <version>
0

> <i_ionizer_Ion_state_n>
1

> <i_ionizer_Tot_Q>
1

> <s_ionizer_Ion_centers>
42

> <s_ionizer_Ion_types>
N5

> <s_ionizer_Ion_ctrs_in>
7

> <r_ionizer_Ionization_penalty>
0.000148807

> <r_ionizer_Ionization_penalty_charging>
0.000148807

> <r_ionizer_Ionization_penalty_neutral>
0

$$$$
ZINC001258453397
                    3D
 Structure written by MMmdl.
 44 46  0  0  1  0            999 V2000
   -2.7388   -0.9846    1.9014 C   0  0  0  0  0  0
   -1.7271   -1.1983    0.7727 C   0  0  1  0  0  0
   -2.4235   -1.4787   -0.5793 C   0  0  0  0  0  0
   -3.2499   -0.3345   -1.1090 C   0  0  0  0  0  0
   -3.6015   -0.2993   -2.5737 C   0  0  0  0  0  0
   -2.6398    0.7076   -2.0110 C   0  0  0  0  0  0
    0.1441    0.0946    1.7002 C   0  0  0  0  0  0
    1.2455    1.0751    1.2961 C   0  0  0  0  0  0
    2.6496    0.4922    1.3433 C   0  0  0  0  0  0
    2.9850   -0.4948    0.2237 C   0  0  0  0  0  0
    1.9760   -0.9508   -0.8782 C   0  0  0  0  0  0
    3.1798   -1.0102   -1.8399 C   0  0  0  0  0  0
    3.8289    0.0741   -0.9533 C   0  0  0  0  0  0
    1.0848    2.5021    1.8088 C   0  0  0  0  0  0
    0.9891    2.2419    0.3423 C   0  0  0  0  0  0
   -3.4871   -1.7840    1.9084 H   0  0  0  0  0  0
   -3.2666   -0.0297    1.8045 H   0  0  0  0  0  0
   -2.2458   -0.9938    2.8788 H   0  0  0  0  0  0
   -1.1419   -2.0978    1.0045 H   0  0  0  0  0  0
   -1.6591   -1.7596   -1.3178 H   0  0  0  0  0  0
   -3.0780   -2.3531   -0.4728 H   0  0  0  0  0  0
   -4.0212   -0.0180   -0.4154 H   0  0  0  0  0  0
   -4.5939    0.0401   -2.8481 H   0  0  0  0  0  0
   -3.2006   -1.0707   -3.2231 H   0  0  0  0  0  0
   -2.9797    1.7321   -1.9076 H   0  0  0  0  0  0
   -1.5909    0.6154   -2.2738 H   0  0  0  0  0  0
   -0.3475    0.4452    2.6142 H   0  0  0  0  0  0
    0.5958   -0.8754    1.9364 H   0  0  0  0  0  0
    2.7717   -0.0110    2.3117 H   0  0  0  0  0  0
    3.3987    1.2944    1.3509 H   0  0  0  0  0  0
    3.4902   -1.3644    0.6743 H   0  0  0  0  0  0
    1.4680   -1.9006   -0.6951 H   0  0  0  0  0  0
    1.2390   -0.2027   -1.1885 H   0  0  0  0  0  0
    3.7102   -1.9694   -1.8323 H   0  0  0  0  0  0
    2.9765   -0.7231   -2.8739 H   0  0  0  0  0  0
    4.9135    0.0046   -0.8397 H   0  0  0  0  0  0
    3.5675    1.0975   -1.2491 H   0  0  0  0  0  0
    0.1714    2.7814    2.3231 H   0  0  0  0  0  0
    1.9581    3.0343    2.1700 H   0  0  0  0  0  0
    0.0221    2.3486   -0.1342 H   0  0  0  0  0  0
    1.8037    2.5864   -0.2859 H   0  0  0  0  0  0
   -0.8194   -0.0376    0.5918 N   0  3  0  0  0  0
   -0.2996   -0.1578   -0.2854 H   0  0  0  0  0  0
   -1.3837    0.8187    0.5406 H   0  0  0  0  0  0
  1  2  1  0  0  0
  1 16  1  0  0  0
  1 17  1  0  0  0
  1 18  1  0  0  0
  2  3  1  0  0  0
  2 19  1  0  0  0
  2 42  1  0  0  0
  3  4  1  0  0  0
  3 20  1  0  0  0
  3 21  1  0  0  0
  4  5  1  0  0  0
  4  6  1  0  0  0
  4 22  1  0  0  0
  5  6  1  0  0  0
  5 23  1  0  0  0
  5 24  1  0  0  0
  6 25  1  0  0  0
  6 26  1  0  0  0
  7  8  1  0  0  0
  7 27  1  0  0  0
  7 28  1  0  0  0
  7 42  1  0  0  0
  8  9  1  0  0  0
  8 14  1  0  0  0
  8 15  1  0  0  0
  9 10  1  0  0  0
  9 29  1  0  0  0
  9 30  1  0  0  0
 10 11  1  0  0  0
 10 13  1  0  0  0
 10 31  1  0  0  0
 11 12  1  0  0  0
 11 32  1  0  0  0
 11 33  1  0  0  0
 12 13  1  0  0  0
 12 34  1  0  0  0
 12 35  1  0  0  0
 13 36  1  0  0  0
 13 37  1  0  0  0
 14 15  1  0  0  0
 14 38  1  0  0  0
 14 39  1  0  0  0
 15 40  1  0  0  0
 15 41  1  0  0  0
 42 43  1  0  0  0
 42 44  1  0  0  0
M  CHG  1  42   1
M  END
> <energy>
63.0316

> <chiral flag>
0

> <version>
0

> <i_ionizer_Ion_state_n>
1

> <i_ionizer_Tot_Q>
1

> <s_ionizer_Ion_centers>
42

> <s_ionizer_Ion_types>
N5

> <s_ionizer_Ion_ctrs_in>
7

> <r_ionizer_Ionization_penalty>
0.000148807

> <r_ionizer_Ionization_penalty_charging>
0.000148807

> <r_ionizer_Ionization_penalty_neutral>
0

$$$$
ZINC001258453431
                    3D
 Structure written by MMmdl.
 43 44  0  0  1  0            999 V2000
   -1.2440   -0.1704   -2.6850 C   0  0  0  0  0  0
   -0.6926   -0.1765   -1.2499 C   0  0  2  0  0  0
   -1.1708   -1.4545   -0.5284 C   0  0  0  0  0  0
   -2.6288   -1.4269   -0.1332 C   0  0  0  0  0  0
   -3.2084   -2.6086    0.5986 C   0  0  0  0  0  0
   -3.0191   -1.2991    1.3194 C   0  0  0  0  0  0
   -0.1416    1.7404    0.3157 C   0  0  0  0  0  0
   -1.0548    2.5717    1.2631 C   0  0  0  0  0  0
    0.6237    2.7501   -0.5626 C   0  0  0  0  0  0
    0.7878    0.8968    1.2618 C   0  0  0  0  0  0
    1.9666    0.0908    0.7623 C   0  0  0  0  0  0
    3.0181    0.6672    0.0381 C   0  0  0  0  0  0
    4.1129   -0.0935   -0.3810 C   0  0  0  0  0  0
    4.1911   -1.4435   -0.0503 C   0  0  0  0  0  0
    3.1899   -2.0258    0.7166 C   0  0  0  0  0  0
    2.0973   -1.2593    1.1219 C   0  0  0  0  0  0
    1.1680   -1.8428    1.8905 F   0  0  0  0  0  0
   -0.8157    0.6611   -3.2583 H   0  0  0  0  0  0
   -0.9753   -1.0965   -3.2061 H   0  0  0  0  0  0
   -2.3374   -0.0757   -2.7155 H   0  0  0  0  0  0
    0.3942   -0.2130   -1.3611 H   0  0  0  0  0  0
   -0.5717   -1.6138    0.3715 H   0  0  0  0  0  0
   -0.9976   -2.3230   -1.1769 H   0  0  0  0  0  0
   -3.2681   -0.9428   -0.8606 H   0  0  0  0  0  0
   -4.2088   -2.9153    0.3108 H   0  0  0  0  0  0
   -2.5353   -3.4235    0.8562 H   0  0  0  0  0  0
   -2.2196   -1.2280    2.0515 H   0  0  0  0  0  0
   -3.8865   -0.6925    1.5568 H   0  0  0  0  0  0
   -1.5884    3.3665    0.7286 H   0  0  0  0  0  0
   -0.4851    3.0571    2.0631 H   0  0  0  0  0  0
   -1.8126    1.9446    1.7499 H   0  0  0  0  0  0
    1.1814    2.2551   -1.3657 H   0  0  0  0  0  0
    1.3170    3.3567    0.0350 H   0  0  0  0  0  0
   -0.0529    3.4545   -1.0643 H   0  0  0  0  0  0
    0.1380    0.2316    1.8423 H   0  0  0  0  0  0
    1.2195    1.5753    2.0138 H   0  0  0  0  0  0
    3.0153    1.7235   -0.2085 H   0  0  0  0  0  0
    4.9087    0.3788   -0.9560 H   0  0  0  0  0  0
    5.0398   -2.0392   -0.3897 H   0  0  0  0  0  0
    3.2368   -3.0732    0.9928 H   0  0  0  0  0  0
   -1.1845    1.0497   -0.5412 N   0  3  0  0  0  0
   -1.5136    1.7181   -1.2477 H   0  0  0  0  0  0
   -1.9683    0.7777    0.0638 H   0  0  0  0  0  0
  1  2  1  0  0  0
  1 18  1  0  0  0
  1 19  1  0  0  0
  1 20  1  0  0  0
  2  3  1  0  0  0
  2 21  1  0  0  0
  2 41  1  0  0  0
  3  4  1  0  0  0
  3 22  1  0  0  0
  3 23  1  0  0  0
  4  5  1  0  0  0
  4  6  1  0  0  0
  4 24  1  0  0  0
  5  6  1  0  0  0
  5 25  1  0  0  0
  5 26  1  0  0  0
  6 27  1  0  0  0
  6 28  1  0  0  0
  7  8  1  0  0  0
  7  9  1  0  0  0
  7 10  1  0  0  0
  7 41  1  0  0  0
  8 29  1  0  0  0
  8 30  1  0  0  0
  8 31  1  0  0  0
  9 32  1  0  0  0
  9 33  1  0  0  0
  9 34  1  0  0  0
 10 11  1  0  0  0
 10 35  1  0  0  0
 10 36  1  0  0  0
 11 12  2  0  0  0
 11 16  1  0  0  0
 12 13  1  0  0  0
 12 37  1  0  0  0
 13 14  2  0  0  0
 13 38  1  0  0  0
 14 15  1  0  0  0
 14 39  1  0  0  0
 15 16  2  0  0  0
 15 40  1  0  0  0
 16 17  1  0  0  0
 41 42  1  0  0  0
 41 43  1  0  0  0
M  CHG  1  41   1
M  END
> <energy>
75.8257

> <chiral flag>
0

> <version>
0

> <i_ionizer_Ion_state_n>
1

> <i_ionizer_Tot_Q>
1

> <s_ionizer_Ion_centers>
41

> <s_ionizer_Ion_types>
N5

> <s_ionizer_Ion_ctrs_in>
7

> <r_ionizer_Ionization_penalty>
0.000148807

> <r_ionizer_Ionization_penalty_charging>
0.000148807

> <r_ionizer_Ionization_penalty_neutral>
0

$$$$
ZINC001258453447
                    3D
 Structure written by MMmdl.
 43 44  0  0  1  0            999 V2000
   -3.0085   -0.1578   -0.8652 C   0  0  0  0  0  0
   -1.4783   -0.0693   -0.8299 C   0  0  1  0  0  0
   -0.9857    1.2178   -1.5451 C   0  0  0  0  0  0
   -1.5745    2.5078   -1.0341 C   0  0  0  0  0  0
   -0.7809    3.7847   -1.1633 C   0  0  0  0  0  0
   -1.0311    3.1901    0.1948 C   0  0  0  0  0  0
   -0.5177   -1.3575    1.1392 C   0  0  0  0  0  0
   -0.0382   -0.9965    2.5632 C   0  0  0  0  0  0
   -1.7057   -2.3269    1.3036 C   0  0  0  0  0  0
    0.6131   -2.1182    0.3671 C   0  0  0  0  0  0
    1.8714   -1.3613    0.0059 C   0  0  0  0  0  0
    2.0601   -0.8735   -1.2966 C   0  0  0  0  0  0
    3.2288   -0.1902   -1.6456 C   0  0  0  0  0  0
    4.2308    0.0100   -0.6992 C   0  0  0  0  0  0
    4.0665   -0.4836    0.5936 C   0  0  0  0  0  0
    2.9003   -1.1672    0.9319 C   0  0  0  0  0  0
    2.7923   -1.6679    2.1705 F   0  0  0  0  0  0
   -3.3840    0.0313   -1.8774 H   0  0  0  0  0  0
   -3.4774    0.5717   -0.1955 H   0  0  0  0  0  0
   -3.3644   -1.1484   -0.5709 H   0  0  0  0  0  0
   -1.0826   -0.9114   -1.4052 H   0  0  0  0  0  0
    0.1092    1.2670   -1.4886 H   0  0  0  0  0  0
   -1.2317    1.1387   -2.6128 H   0  0  0  0  0  0
   -2.6371    2.5827   -1.2312 H   0  0  0  0  0  0
   -1.3136    4.6895   -1.4303 H   0  0  0  0  0  0
    0.2314    3.7367   -1.5526 H   0  0  0  0  0  0
   -0.1909    2.7361    0.7099 H   0  0  0  0  0  0
   -1.7374    3.6875    0.8492 H   0  0  0  0  0  0
    0.7381   -0.2226    2.5504 H   0  0  0  0  0  0
   -0.8624   -0.6146    3.1785 H   0  0  0  0  0  0
    0.3689   -1.8758    3.0762 H   0  0  0  0  0  0
   -2.5573   -1.8429    1.7951 H   0  0  0  0  0  0
   -2.0446   -2.7218    0.3406 H   0  0  0  0  0  0
   -1.4221   -3.1882    1.9203 H   0  0  0  0  0  0
    0.1980   -2.5475   -0.5563 H   0  0  0  0  0  0
    0.9153   -2.9970    0.9553 H   0  0  0  0  0  0
    1.2943   -1.0254   -2.0532 H   0  0  0  0  0  0
    3.3547    0.1845   -2.6581 H   0  0  0  0  0  0
    5.1390    0.5415   -0.9687 H   0  0  0  0  0  0
    4.8420   -0.3482    1.3406 H   0  0  0  0  0  0
   -0.9426   -0.0201    0.5739 N   0  3  0  0  0  0
   -0.1273    0.6039    0.5826 H   0  0  0  0  0  0
   -1.6750    0.3653    1.1816 H   0  0  0  0  0  0
  1  2  1  0  0  0
  1 18  1  0  0  0
  1 19  1  0  0  0
  1 20  1  0  0  0
  2  3  1  0  0  0
  2 21  1  0  0  0
  2 41  1  0  0  0
  3  4  1  0  0  0
  3 22  1  0  0  0
  3 23  1  0  0  0
  4  5  1  0  0  0
  4  6  1  0  0  0
  4 24  1  0  0  0
  5  6  1  0  0  0
  5 25  1  0  0  0
  5 26  1  0  0  0
  6 27  1  0  0  0
  6 28  1  0  0  0
  7  8  1  0  0  0
  7  9  1  0  0  0
  7 10  1  0  0  0
  7 41  1  0  0  0
  8 29  1  0  0  0
  8 30  1  0  0  0
  8 31  1  0  0  0
  9 32  1  0  0  0
  9 33  1  0  0  0
  9 34  1  0  0  0
 10 11  1  0  0  0
 10 35  1  0  0  0
 10 36  1  0  0  0
 11 12  2  0  0  0
 11 16  1  0  0  0
 12 13  1  0  0  0
 12 37  1  0  0  0
 13 14  2  0  0  0
 13 38  1  0  0  0
 14 15  1  0  0  0
 14 39  1  0  0  0
 15 16  2  0  0  0
 15 40  1  0  0  0
 16 17  1  0  0  0
 41 42  1  0  0  0
 41 43  1  0  0  0
M  CHG  1  41   1
M  END
> <energy>
69.0571

> <chiral flag>
0

> <version>
0

> <i_ionizer_Ion_state_n>
1

> <i_ionizer_Tot_Q>
1

> <s_ionizer_Ion_centers>
41

> <s_ionizer_Ion_types>
N5

> <s_ionizer_Ion_ctrs_in>
7

> <r_ionizer_Ionization_penalty>
0.000148807

> <r_ionizer_Ionization_penalty_charging>
0.000148807

> <r_ionizer_Ionization_penalty_neutral>
0

$$$$
ZINC001258453466
                    3D
 Structure written by MMmdl.
 41 43  0  0  1  0            999 V2000
   -2.8870   -2.1401   -1.0684 C   0  0  0  0  0  0
   -1.8086   -1.3398   -0.3162 C   0  0  2  0  0  0
   -1.9351    0.1528   -0.7122 C   0  0  0  0  0  0
   -2.1472    1.0550    0.4792 C   0  0  0  0  0  0
   -2.5161    2.5007    0.2484 C   0  0  0  0  0  0
   -1.1646    2.1536    0.7989 C   0  0  0  0  0  0
    0.6797   -1.5379    0.1045 C   0  0  2  0  0  0
    0.4685   -1.3571    1.6194 C   0  0  0  0  0  0
    1.7607   -0.8992    2.2876 C   0  0  0  0  0  0
    2.1835    0.4621    1.7434 C   0  0  0  0  0  0
    2.1870    0.5213    0.2355 C   0  0  0  0  0  0
    2.9193    1.5388   -0.3986 C   0  0  0  0  0  0
    2.9362    1.6302   -1.7844 C   0  0  0  0  0  0
    3.6494    2.6004   -2.3737 F   0  0  0  0  0  0
    2.2370    0.7256   -2.5678 C   0  0  0  0  0  0
    1.5010   -0.2855   -1.9506 C   0  0  0  0  0  0
    1.4393   -0.3876   -0.5464 C   0  0  0  0  0  0
   -2.7259   -2.1061   -2.1520 H   0  0  0  0  0  0
   -2.8908   -3.1913   -0.7572 H   0  0  0  0  0  0
   -3.8842   -1.7358   -0.8627 H   0  0  0  0  0  0
   -2.0260   -1.4842    0.7485 H   0  0  0  0  0  0
   -1.0748    0.4908   -1.2955 H   0  0  0  0  0  0
   -2.7986    0.2908   -1.3765 H   0  0  0  0  0  0
   -2.6622    0.5661    1.2983 H   0  0  0  0  0  0
   -3.2411    2.9479    0.9195 H   0  0  0  0  0  0
   -2.5658    2.8696   -0.7700 H   0  0  0  0  0  0
   -0.3096    2.3019    0.1491 H   0  0  0  0  0  0
   -0.9674    2.3678    1.8425 H   0  0  0  0  0  0
    1.3822   -2.3797    0.0042 H   0  0  0  0  0  0
    0.1387   -2.3044    2.0639 H   0  0  0  0  0  0
   -0.3033   -0.6112    1.8350 H   0  0  0  0  0  0
    1.6193   -0.8338    3.3722 H   0  0  0  0  0  0
    2.5517   -1.6386    2.1110 H   0  0  0  0  0  0
    1.4988    1.2341    2.1153 H   0  0  0  0  0  0
    3.1827    0.6965    2.1295 H   0  0  0  0  0  0
    3.4834    2.2639    0.1803 H   0  0  0  0  0  0
    2.2637    0.8098   -3.6488 H   0  0  0  0  0  0
    0.9575   -0.9958   -2.5704 H   0  0  0  0  0  0
   -0.5148   -2.0175   -0.6844 N   0  3  0  0  0  0
   -0.6226   -3.0261   -0.5248 H   0  0  0  0  0  0
   -0.3333   -1.8460   -1.6803 H   0  0  0  0  0  0
  1  2  1  0  0  0
  1 18  1  0  0  0
  1 19  1  0  0  0
  1 20  1  0  0  0
  2  3  1  0  0  0
  2 21  1  0  0  0
  2 39  1  0  0  0
  3  4  1  0  0  0
  3 22  1  0  0  0
  3 23  1  0  0  0
  4  5  1  0  0  0
  4  6  1  0  0  0
  4 24  1  0  0  0
  5  6  1  0  0  0
  5 25  1  0  0  0
  5 26  1  0  0  0
  6 27  1  0  0  0
  6 28  1  0  0  0
  7  8  1  0  0  0
  7 17  1  0  0  0
  7 29  1  0  0  0
  7 39  1  0  0  0
  8  9  1  0  0  0
  8 30  1  0  0  0
  8 31  1  0  0  0
  9 10  1  0  0  0
  9 32  1  0  0  0
  9 33  1  0  0  0
 10 11  1  0  0  0
 10 34  1  0  0  0
 10 35  1  0  0  0
 11 12  2  0  0  0
 11 17  1  0  0  0
 12 13  1  0  0  0
 12 36  1  0  0  0
 13 14  1  0  0  0
 13 15  2  0  0  0
 15 16  1  0  0  0
 15 37  1  0  0  0
 16 17  2  0  0  0
 16 38  1  0  0  0
 39 40  1  0  0  0
 39 41  1  0  0  0
M  CHG  1  39   1
M  END
> <energy>
53.0115

> <chiral flag>
0

> <version>
0

> <i_ionizer_Ion_state_n>
1

> <i_ionizer_Tot_Q>
1

> <s_ionizer_Ion_centers>
39

> <s_ionizer_Ion_types>
N5

> <s_ionizer_Ion_ctrs_in>
7

> <r_ionizer_Ionization_penalty>
0.000148807

> <r_ionizer_Ionization_penalty_charging>
0.000148807

> <r_ionizer_Ionization_penalty_neutral>
0

$$$$
ZINC001258453468
                    3D
 Structure written by MMmdl.
 41 43  0  0  1  0            999 V2000
   -2.2929    1.1290   -2.2502 C   0  0  0  0  0  0
   -1.6553    0.3776   -1.0742 C   0  0  2  0  0  0
   -2.4095    0.6937    0.2378 C   0  0  0  0  0  0
   -3.6300   -0.1755    0.4121 C   0  0  0  0  0  0
   -3.5075   -1.5322    1.0637 C   0  0  0  0  0  0
   -4.1902   -0.4083    1.7925 C   0  0  0  0  0  0
    0.6062   -0.2258   -0.3145 C   0  0  1  0  0  0
    1.0088   -1.3241   -1.3358 C   0  0  0  0  0  0
    2.5096   -1.5199   -1.5302 C   0  0  0  0  0  0
    3.2369   -1.5378   -0.1957 C   0  0  0  0  0  0
    3.0299   -0.2189    0.4967 C   0  0  0  0  0  0
    4.0702    0.3555    1.2381 C   0  0  0  0  0  0
    3.8689    1.5670    1.8904 C   0  0  0  0  0  0
    4.8717    2.1148    2.5894 F   0  0  0  0  0  0
    2.6388    2.2081    1.8417 C   0  0  0  0  0  0
    1.5944    1.6302    1.1204 C   0  0  0  0  0  0
    1.7771    0.4242    0.4198 C   0  0  0  0  0  0
   -3.3458    0.8504   -2.3728 H   0  0  0  0  0  0
   -1.7813    0.8956   -3.1918 H   0  0  0  0  0  0
   -2.2506    2.2153   -2.1100 H   0  0  0  0  0  0
   -1.7194   -0.6928   -1.3026 H   0  0  0  0  0  0
   -1.7514    0.5564    1.1056 H   0  0  0  0  0  0
   -2.7159    1.7470    0.2560 H   0  0  0  0  0  0
   -4.3482   -0.0605   -0.3915 H   0  0  0  0  0  0
   -4.1256   -2.3380    0.6812 H   0  0  0  0  0  0
   -2.5382   -1.8551    1.4284 H   0  0  0  0  0  0
   -3.6771    0.0188    2.6466 H   0  0  0  0  0  0
   -5.2684   -0.4527    1.9034 H   0  0  0  0  0  0
    0.0311   -0.7255    0.4788 H   0  0  0  0  0  0
    0.5565   -1.1529   -2.3220 H   0  0  0  0  0  0
    0.5790   -2.2745   -0.9930 H   0  0  0  0  0  0
    2.6892   -2.4576   -2.0666 H   0  0  0  0  0  0
    2.9076   -0.7155   -2.1643 H   0  0  0  0  0  0
    2.8658   -2.3447    0.4475 H   0  0  0  0  0  0
    4.3037   -1.7171   -0.3757 H   0  0  0  0  0  0
    5.0393   -0.1262    1.3139 H   0  0  0  0  0  0
    2.4953    3.1438    2.3720 H   0  0  0  0  0  0
    0.6274    2.1273    1.1021 H   0  0  0  0  0  0
   -0.2373    0.8141   -0.9741 N   0  3  0  0  0  0
    0.1258    0.9896   -1.9183 H   0  0  0  0  0  0
   -0.1921    1.6797   -0.4237 H   0  0  0  0  0  0
  1  2  1  0  0  0
  1 18  1  0  0  0
  1 19  1  0  0  0
  1 20  1  0  0  0
  2  3  1  0  0  0
  2 21  1  0  0  0
  2 39  1  0  0  0
  3  4  1  0  0  0
  3 22  1  0  0  0
  3 23  1  0  0  0
  4  5  1  0  0  0
  4  6  1  0  0  0
  4 24  1  0  0  0
  5  6  1  0  0  0
  5 25  1  0  0  0
  5 26  1  0  0  0
  6 27  1  0  0  0
  6 28  1  0  0  0
  7  8  1  0  0  0
  7 17  1  0  0  0
  7 29  1  0  0  0
  7 39  1  0  0  0
  8  9  1  0  0  0
  8 30  1  0  0  0
  8 31  1  0  0  0
  9 10  1  0  0  0
  9 32  1  0  0  0
  9 33  1  0  0  0
 10 11  1  0  0  0
 10 34  1  0  0  0
 10 35  1  0  0  0
 11 12  2  0  0  0
 11 17  1  0  0  0
 12 13  1  0  0  0
 12 36  1  0  0  0
 13 14  1  0  0  0
 13 15  2  0  0  0
 15 16  1  0  0  0
 15 37  1  0  0  0
 16 17  2  0  0  0
 16 38  1  0  0  0
 39 40  1  0  0  0
 39 41  1  0  0  0
M  CHG  1  39   1
M  END
> <energy>
51.265

> <chiral flag>
0

> <version>
0

> <i_ionizer_Ion_state_n>
1

> <i_ionizer_Tot_Q>
1

> <s_ionizer_Ion_centers>
39

> <s_ionizer_Ion_types>
N5

> <s_ionizer_Ion_ctrs_in>
7

> <r_ionizer_Ionization_penalty>
0.000148807

> <r_ionizer_Ionization_penalty_charging>
0.000148807

> <r_ionizer_Ionization_penalty_neutral>
0

$$$$
ZINC001258453471
                    3D
 Structure written by MMmdl.
 41 43  0  0  1  0            999 V2000
   -2.3615   -2.2144    0.1990 C   0  0  0  0  0  0
   -1.6153   -0.9533   -0.2441 C   0  0  1  0  0  0
   -2.5116    0.2989   -0.1327 C   0  0  0  0  0  0
   -3.5701    0.3675   -1.1990 C   0  0  0  0  0  0
   -3.3072    1.0965   -2.4919 C   0  0  0  0  0  0
   -4.2467    1.6863   -1.4762 C   0  0  0  0  0  0
    0.8040   -0.5211   -0.0701 C   0  0  2  0  0  0
    1.4952   -1.8773   -0.3112 C   0  0  0  0  0  0
    2.9753   -1.7180   -0.6326 C   0  0  0  0  0  0
    3.6894   -1.0723    0.5504 C   0  0  0  0  0  0
    3.0329    0.2165    0.9736 C   0  0  0  0  0  0
    3.7900    1.1643    1.6811 C   0  0  0  0  0  0
    3.2209    2.3742    2.0584 C   0  0  0  0  0  0
    3.9580    3.2759    2.7196 F   0  0  0  0  0  0
    1.9030    2.6713    1.7425 C   0  0  0  0  0  0
    1.1381    1.7303    1.0544 C   0  0  0  0  0  0
    1.6737    0.4763    0.6942 C   0  0  0  0  0  0
   -2.7379   -2.1238    1.2240 H   0  0  0  0  0  0
   -3.2153   -2.4232   -0.4533 H   0  0  0  0  0  0
   -1.7056   -3.0917    0.1608 H   0  0  0  0  0  0
   -1.3131   -1.1001   -1.2884 H   0  0  0  0  0  0
   -1.8875    1.1991   -0.2002 H   0  0  0  0  0  0
   -2.9979    0.3297    0.8506 H   0  0  0  0  0  0
   -4.2049   -0.5119   -1.2236 H   0  0  0  0  0  0
   -2.3470    1.5795   -2.6347 H   0  0  0  0  0  0
   -3.7320    0.6848   -3.3996 H   0  0  0  0  0  0
   -3.9198    2.5625   -0.9266 H   0  0  0  0  0  0
   -5.3103    1.6712   -1.6909 H   0  0  0  0  0  0
    0.6093   -0.0455   -1.0424 H   0  0  0  0  0  0
    0.9934   -2.4101   -1.1283 H   0  0  0  0  0  0
    1.4069   -2.5170    0.5786 H   0  0  0  0  0  0
    3.4204   -2.7000   -0.8368 H   0  0  0  0  0  0
    3.0991   -1.1080   -1.5372 H   0  0  0  0  0  0
    4.7330   -0.8878    0.2684 H   0  0  0  0  0  0
    3.6915   -1.7587    1.4058 H   0  0  0  0  0  0
    4.8300    0.9760    1.9326 H   0  0  0  0  0  0
    1.4811    3.6291    2.0292 H   0  0  0  0  0  0
    0.1140    1.9847    0.7927 H   0  0  0  0  0  0
   -0.4510   -0.8219    0.6721 N   0  3  0  0  0  0
   -0.6349   -0.0611    1.3365 H   0  0  0  0  0  0
   -0.3307   -1.7030    1.1854 H   0  0  0  0  0  0
  1  2  1  0  0  0
  1 18  1  0  0  0
  1 19  1  0  0  0
  1 20  1  0  0  0
  2  3  1  0  0  0
  2 21  1  0  0  0
  2 39  1  0  0  0
  3  4  1  0  0  0
  3 22  1  0  0  0
  3 23  1  0  0  0
  4  5  1  0  0  0
  4  6  1  0  0  0
  4 24  1  0  0  0
  5  6  1  0  0  0
  5 25  1  0  0  0
  5 26  1  0  0  0
  6 27  1  0  0  0
  6 28  1  0  0  0
  7  8  1  0  0  0
  7 17  1  0  0  0
  7 29  1  0  0  0
  7 39  1  0  0  0
  8  9  1  0  0  0
  8 30  1  0  0  0
  8 31  1  0  0  0
  9 10  1  0  0  0
  9 32  1  0  0  0
  9 33  1  0  0  0
 10 11  1  0  0  0
 10 34  1  0  0  0
 10 35  1  0  0  0
 11 12  2  0  0  0
 11 17  1  0  0  0
 12 13  1  0  0  0
 12 36  1  0  0  0
 13 14  1  0  0  0
 13 15  2  0  0  0
 15 16  1  0  0  0
 15 37  1  0  0  0
 16 17  2  0  0  0
 16 38  1  0  0  0
 39 40  1  0  0  0
 39 41  1  0  0  0
M  CHG  1  39   1
M  END
> <energy>
48.9577

> <chiral flag>
0

> <version>
0

> <i_ionizer_Ion_state_n>
1

> <i_ionizer_Tot_Q>
1

> <s_ionizer_Ion_centers>
39

> <s_ionizer_Ion_types>
N5

> <s_ionizer_Ion_ctrs_in>
7

> <r_ionizer_Ionization_penalty>
0.000148807

> <r_ionizer_Ionization_penalty_charging>
0.000148807

> <r_ionizer_Ionization_penalty_neutral>
0

$$$$
ZINC001258453473
                    3D
 Structure written by MMmdl.
 41 43  0  0  1  0            999 V2000
   -2.7797    1.6504   -1.5822 C   0  0  0  0  0  0
   -1.6927    0.9951   -0.7120 C   0  0  1  0  0  0
   -1.4085   -0.4289   -1.2319 C   0  0  0  0  0  0
   -2.3949   -1.4328   -0.6938 C   0  0  0  0  0  0
   -2.0567   -2.8992   -0.7470 C   0  0  0  0  0  0
   -2.0725   -2.1829    0.5728 C   0  0  0  0  0  0
    0.5544    1.7242    0.2186 C   0  0  1  0  0  0
    0.0349    1.7055    1.6720 C   0  0  0  0  0  0
    1.1497    1.3847    2.6583 C   0  0  0  0  0  0
    1.6805   -0.0159    2.3808 C   0  0  0  0  0  0
    2.0975   -0.1901    0.9399 C   0  0  0  0  0  0
    3.0301   -1.1938    0.6308 C   0  0  0  0  0  0
    3.4564   -1.3691   -0.6790 C   0  0  0  0  0  0
    4.3545   -2.3233   -0.9593 F   0  0  0  0  0  0
    2.9810   -0.5575   -1.6970 C   0  0  0  0  0  0
    2.0516    0.4411   -1.4021 C   0  0  0  0  0  0
    1.5613    0.6159   -0.0906 C   0  0  0  0  0  0
   -2.4630    1.7294   -2.6299 H   0  0  0  0  0  0
   -3.0160    2.6613   -1.2255 H   0  0  0  0  0  0
   -3.7099    1.0721   -1.5611 H   0  0  0  0  0  0
   -2.1052    0.9535    0.3006 H   0  0  0  0  0  0
   -1.4223   -0.4524   -2.3298 H   0  0  0  0  0  0
   -0.4138   -0.7633   -0.9364 H   0  0  0  0  0  0
   -3.4279   -1.1608   -0.8803 H   0  0  0  0  0  0
   -1.0937   -3.1884   -1.1571 H   0  0  0  0  0  0
   -2.8601   -3.5971   -0.9594 H   0  0  0  0  0  0
   -1.1190   -2.0004    1.0583 H   0  0  0  0  0  0
   -2.8835   -2.3958    1.2613 H   0  0  0  0  0  0
    1.1557    2.6413    0.1357 H   0  0  0  0  0  0
   -0.4115    2.6776    1.9154 H   0  0  0  0  0  0
   -0.7414    0.9459    1.8131 H   0  0  0  0  0  0
    0.7696    1.4397    3.6848 H   0  0  0  0  0  0
    1.9570    2.1221    2.5708 H   0  0  0  0  0  0
    0.9066   -0.7594    2.6082 H   0  0  0  0  0  0
    2.5301   -0.2087    3.0467 H   0  0  0  0  0  0
    3.4430   -1.8357    1.4041 H   0  0  0  0  0  0
    3.3390   -0.7002   -2.7119 H   0  0  0  0  0  0
    1.7075    1.0747   -2.2136 H   0  0  0  0  0  0
   -0.5300    1.9457   -0.8128 N   0  3  0  0  0  0
   -0.1118    1.8426   -1.7448 H   0  0  0  0  0  0
   -0.8874    2.9018   -0.7018 H   0  0  0  0  0  0
  1  2  1  0  0  0
  1 18  1  0  0  0
  1 19  1  0  0  0
  1 20  1  0  0  0
  2  3  1  0  0  0
  2 21  1  0  0  0
  2 39  1  0  0  0
  3  4  1  0  0  0
  3 22  1  0  0  0
  3 23  1  0  0  0
  4  5  1  0  0  0
  4  6  1  0  0  0
  4 24  1  0  0  0
  5  6  1  0  0  0
  5 25  1  0  0  0
  5 26  1  0  0  0
  6 27  1  0  0  0
  6 28  1  0  0  0
  7  8  1  0  0  0
  7 17  1  0  0  0
  7 29  1  0  0  0
  7 39  1  0  0  0
  8  9  1  0  0  0
  8 30  1  0  0  0
  8 31  1  0  0  0
  9 10  1  0  0  0
  9 32  1  0  0  0
  9 33  1  0  0  0
 10 11  1  0  0  0
 10 34  1  0  0  0
 10 35  1  0  0  0
 11 12  2  0  0  0
 11 17  1  0  0  0
 12 13  1  0  0  0
 12 36  1  0  0  0
 13 14  1  0  0  0
 13 15  2  0  0  0
 15 16  1  0  0  0
 15 37  1  0  0  0
 16 17  2  0  0  0
 16 38  1  0  0  0
 39 40  1  0  0  0
 39 41  1  0  0  0
M  CHG  1  39   1
M  END
> <energy>
50.4927

> <chiral flag>
0

> <version>
0

> <i_ionizer_Ion_state_n>
1

> <i_ionizer_Tot_Q>
1

> <s_ionizer_Ion_centers>
39

> <s_ionizer_Ion_types>
N5

> <s_ionizer_Ion_ctrs_in>
7

> <r_ionizer_Ionization_penalty>
0.000148807

> <r_ionizer_Ionization_penalty_charging>
0.000148807

> <r_ionizer_Ionization_penalty_neutral>
0

$$$$
ZINC001258453481
                    3D
 Structure written by MMmdl.
 46 47  0  0  1  0            999 V2000
   -2.3922   -1.7325    1.1547 C   0  0  0  0  0  0
   -1.0190   -1.1324    0.7911 C   0  0  3  0  0  0
   -0.1631   -2.4839    0.6936 C   0  0  0  0  0  0
   -0.2908   -3.0664   -0.6970 C   0  0  0  0  0  0
    0.8739   -2.9691   -1.6488 C   0  0  0  0  0  0
    0.4778   -4.3042   -1.0722 C   0  0  0  0  0  0
   -1.5696    1.3228    0.8595 C   0  0  0  0  0  0
   -0.9712    1.6244   -0.5606 C   0  0  0  0  0  0
   -1.6747    0.7758   -1.6443 C   0  0  0  0  0  0
   -1.2962    3.1014   -0.8943 C   0  0  0  0  0  0
    0.5616    1.3760   -0.6919 C   0  0  0  0  0  0
    1.4591    2.2013    0.2397 C   0  0  0  0  0  0
    1.8941    1.6289    1.6169 C   0  0  0  0  0  0
    3.2068    1.1575    0.9766 C   0  0  0  0  0  0
    2.9610    2.1529   -0.1641 C   0  0  0  0  0  0
   -3.0265   -1.1432    1.8370 H   0  0  0  0  0  0
   -2.9843   -1.8122    0.2389 H   0  0  0  0  0  0
   -2.3542   -2.7423    1.5908 H   0  0  0  0  0  0
   -0.0481   -0.8522    1.1817 H   0  0  0  0  0  0
    0.9117   -2.2947    0.8381 H   0  0  0  0  0  0
   -0.4004   -3.2261    1.4596 H   0  0  0  0  0  0
   -1.2930   -2.9743   -1.1079 H   0  0  0  0  0  0
    1.8104   -2.5323   -1.3140 H   0  0  0  0  0  0
    0.6576   -2.7830   -2.6922 H   0  0  0  0  0  0
    1.1278   -4.7650   -0.3323 H   0  0  0  0  0  0
   -0.0060   -5.0124   -1.7329 H   0  0  0  0  0  0
   -2.6708    1.3024    0.7607 H   0  0  0  0  0  0
   -1.3427    2.1825    1.5225 H   0  0  0  0  0  0
   -1.4314   -0.2883   -1.5759 H   0  0  0  0  0  0
   -1.3808    1.1038   -2.6491 H   0  0  0  0  0  0
   -2.7633    0.8765   -1.5855 H   0  0  0  0  0  0
   -2.3773    3.2578   -0.9857 H   0  0  0  0  0  0
   -0.8318    3.4045   -1.8392 H   0  0  0  0  0  0
   -0.9411    3.7811   -0.1115 H   0  0  0  0  0  0
    0.8462    1.6273   -1.7227 H   0  0  0  0  0  0
    0.7913    0.3103   -0.5923 H   0  0  0  0  0  0
    1.1123    3.2384    0.3051 H   0  0  0  0  0  0
    2.0324    2.4039    2.3810 H   0  0  0  0  0  0
    1.2974    0.8254    2.0435 H   0  0  0  0  0  0
    3.1923    0.1085    0.6591 H   0  0  0  0  0  0
    4.1044    1.3396    1.5692 H   0  0  0  0  0  0
    3.1894    1.7718   -1.1627 H   0  0  0  0  0  0
    3.4772    3.1115   -0.0318 H   0  0  0  0  0  0
   -1.1388    0.1201    1.6429 N   0  3  0  0  0  0
   -1.8292   -0.0523    2.3831 H   0  0  0  0  0  0
   -0.2244    0.3164    2.0667 H   0  0  0  0  0  0
  1  2  1  0  0  0
  1 16  1  0  0  0
  1 17  1  0  0  0
  1 18  1  0  0  0
  2  3  1  0  0  0
  2 19  1  0  0  0
  2 44  1  0  0  0
  3  4  1  0  0  0
  3 20  1  0  0  0
  3 21  1  0  0  0
  4  5  1  0  0  0
  4  6  1  0  0  0
  4 22  1  0  0  0
  5  6  1  0  0  0
  5 23  1  0  0  0
  5 24  1  0  0  0
  6 25  1  0  0  0
  6 26  1  0  0  0
  7  8  1  0  0  0
  7 27  1  0  0  0
  7 28  1  0  0  0
  7 44  1  0  0  0
  8  9  1  0  0  0
  8 10  1  0  0  0
  8 11  1  0  0  0
  9 29  1  0  0  0
  9 30  1  0  0  0
  9 31  1  0  0  0
 10 32  1  0  0  0
 10 33  1  0  0  0
 10 34  1  0  0  0
 11 12  1  0  0  0
 11 35  1  0  0  0
 11 36  1  0  0  0
 12 13  1  0  0  0
 12 15  1  0  0  0
 12 37  1  0  0  0
 13 14  1  0  0  0
 13 38  1  0  0  0
 13 39  1  0  0  0
 14 15  1  0  0  0
 14 40  1  0  0  0
 14 41  1  0  0  0
 15 42  1  0  0  0
 15 43  1  0  0  0
 44 45  1  0  0  0
 44 46  1  0  0  0
M  CHG  1  44   1
M  END
> <energy>
157.294

> <chiral flag>
0

> <version>
0

> <i_ionizer_Ion_state_n>
1

> <i_ionizer_Tot_Q>
1

> <s_ionizer_Ion_centers>
44

> <s_ionizer_Ion_types>
N5

> <s_ionizer_Ion_ctrs_in>
7

> <r_ionizer_Ionization_penalty>
0.000148807

> <r_ionizer_Ionization_penalty_charging>
0.000148807

> <r_ionizer_Ionization_penalty_neutral>
0

$$$$
ZINC001258453483
                    3D
 Structure written by MMmdl.
 46 47  0  0  1  0            999 V2000
   -1.6949    0.5059    2.2398 C   0  0  0  0  0  0
   -1.9199   -0.5746    1.1782 C   0  0  1  0  0  0
   -3.2014   -0.2945    0.3554 C   0  0  0  0  0  0
   -3.1033    0.8597   -0.6075 C   0  0  0  0  0  0
   -2.8790    0.6126   -2.0783 C   0  0  0  0  0  0
   -4.2189    1.0885   -1.5968 C   0  0  0  0  0  0
    0.2394   -1.6598    0.7988 C   0  0  0  0  0  0
    1.6018   -1.6278    0.0443 C   0  0  0  0  0  0
    2.3550   -2.9335    0.4161 C   0  0  0  0  0  0
    1.4187   -1.6450   -1.4840 C   0  0  0  0  0  0
    2.5136   -0.4498    0.4905 C   0  0  0  0  0  0
    1.9133    0.9501    0.4045 C   0  0  0  0  0  0
    1.7613    1.6405   -0.9796 C   0  0  0  0  0  0
    2.2222    2.9478   -0.3079 C   0  0  0  0  0  0
    2.9266    2.0781    0.7475 C   0  0  0  0  0  0
   -0.8440    0.2627    2.8854 H   0  0  0  0  0  0
   -1.4939    1.4837    1.7903 H   0  0  0  0  0  0
   -2.5741    0.6057    2.8841 H   0  0  0  0  0  0
   -2.0967   -1.5266    1.6956 H   0  0  0  0  0  0
   -4.0336   -0.1048    1.0438 H   0  0  0  0  0  0
   -3.4615   -1.2051   -0.1995 H   0  0  0  0  0  0
   -2.6622    1.7466   -0.1649 H   0  0  0  0  0  0
   -2.2560    1.3131   -2.6219 H   0  0  0  0  0  0
   -2.8069   -0.4071   -2.4366 H   0  0  0  0  0  0
   -5.0467    0.3882   -1.6164 H   0  0  0  0  0  0
   -4.5015    2.1120   -1.8204 H   0  0  0  0  0  0
   -0.2116   -2.6549    0.6986 H   0  0  0  0  0  0
    0.4369   -1.5084    1.8681 H   0  0  0  0  0  0
    3.3328   -2.9809   -0.0782 H   0  0  0  0  0  0
    2.5233   -2.9998    1.4975 H   0  0  0  0  0  0
    1.7856   -3.8198    0.1130 H   0  0  0  0  0  0
    2.3844   -1.6927   -1.9978 H   0  0  0  0  0  0
    0.8377   -2.5185   -1.8007 H   0  0  0  0  0  0
    0.8980   -0.7583   -1.8540 H   0  0  0  0  0  0
    3.4455   -0.4834   -0.0873 H   0  0  0  0  0  0
    2.8052   -0.6156    1.5367 H   0  0  0  0  0  0
    1.0223    1.0614    1.0340 H   0  0  0  0  0  0
    2.4518    1.2758   -1.7477 H   0  0  0  0  0  0
    0.7479    1.6643   -1.3910 H   0  0  0  0  0  0
    1.3998    3.5531    0.0916 H   0  0  0  0  0  0
    2.8751    3.5864   -0.9080 H   0  0  0  0  0  0
    2.8804    2.4598    1.7706 H   0  0  0  0  0  0
    3.9683    1.8482    0.5006 H   0  0  0  0  0  0
   -0.7274   -0.6589    0.3010 N   0  3  0  0  0  0
   -1.0265   -0.9250   -0.6445 H   0  0  0  0  0  0
   -0.2704    0.2600    0.2695 H   0  0  0  0  0  0
  1  2  1  0  0  0
  1 16  1  0  0  0
  1 17  1  0  0  0
  1 18  1  0  0  0
  2  3  1  0  0  0
  2 19  1  0  0  0
  2 44  1  0  0  0
  3  4  1  0  0  0
  3 20  1  0  0  0
  3 21  1  0  0  0
  4  5  1  0  0  0
  4  6  1  0  0  0
  4 22  1  0  0  0
  5  6  1  0  0  0
  5 23  1  0  0  0
  5 24  1  0  0  0
  6 25  1  0  0  0
  6 26  1  0  0  0
  7  8  1  0  0  0
  7 27  1  0  0  0
  7 28  1  0  0  0
  7 44  1  0  0  0
  8  9  1  0  0  0
  8 10  1  0  0  0
  8 11  1  0  0  0
  9 29  1  0  0  0
  9 30  1  0  0  0
  9 31  1  0  0  0
 10 32  1  0  0  0
 10 33  1  0  0  0
 10 34  1  0  0  0
 11 12  1  0  0  0
 11 35  1  0  0  0
 11 36  1  0  0  0
 12 13  1  0  0  0
 12 15  1  0  0  0
 12 37  1  0  0  0
 13 14  1  0  0  0
 13 38  1  0  0  0
 13 39  1  0  0  0
 14 15  1  0  0  0
 14 40  1  0  0  0
 14 41  1  0  0  0
 15 42  1  0  0  0
 15 43  1  0  0  0
 44 45  1  0  0  0
 44 46  1  0  0  0
M  CHG  1  44   1
M  END
> <energy>
57.8005

> <chiral flag>
0

> <version>
0

> <i_ionizer_Ion_state_n>
1

> <i_ionizer_Tot_Q>
1

> <s_ionizer_Ion_centers>
44

> <s_ionizer_Ion_types>
N5

> <s_ionizer_Ion_ctrs_in>
7

> <r_ionizer_Ionization_penalty>
0.000148807

> <r_ionizer_Ionization_penalty_charging>
0.000148807

> <r_ionizer_Ionization_penalty_neutral>
0

$$$$
ZINC001258453574
                    3D
 Structure written by MMmdl.
 40 41  0  0  1  0            999 V2000
    2.8140   -2.7475    0.0802 C   0  0  0  0  0  0
    2.6163   -1.2885    0.3537 C   0  0  0  0  0  0
    1.8015   -0.5002   -0.4686 C   0  0  0  0  0  0
    1.5856    0.8626   -0.1884 C   0  0  0  0  0  0
    0.6965    1.7211   -1.0782 C   0  0  1  0  0  0
    1.4619    2.1021   -2.3511 C   0  0  0  0  0  0
   -1.4865    0.8689   -0.3220 C   0  0  1  0  0  0
   -2.4174    2.0820   -0.2056 C   0  0  0  0  0  0
   -2.2876   -0.4297   -0.5586 C   0  0  0  0  0  0
   -2.9967   -0.8963    0.6858 C   0  0  0  0  0  0
   -2.2347   -1.6576    1.7397 C   0  0  0  0  0  0
   -3.2627   -2.3637    0.8995 C   0  0  0  0  0  0
    2.2131    1.4302    0.9321 C   0  0  0  0  0  0
    3.0226    0.6506    1.7584 C   0  0  0  0  0  0
    3.2118   -0.6962    1.4678 C   0  0  0  0  0  0
    3.9840   -1.4315    2.2815 F   0  0  0  0  0  0
    2.4579   -3.0182   -0.9189 H   0  0  0  0  0  0
    2.2641   -3.3456    0.8140 H   0  0  0  0  0  0
    3.8769   -3.0054    0.1299 H   0  0  0  0  0  0
    1.3143   -0.9476   -1.3333 H   0  0  0  0  0  0
    0.4515    2.6544   -0.5561 H   0  0  0  0  0  0
    2.4043    2.6053   -2.1034 H   0  0  0  0  0  0
    0.8744    2.7884   -2.9723 H   0  0  0  0  0  0
    1.7081    1.2245   -2.9603 H   0  0  0  0  0  0
   -0.9393    0.7632    0.6222 H   0  0  0  0  0  0
   -3.0621    2.1776   -1.0868 H   0  0  0  0  0  0
   -3.0640    1.9974    0.6738 H   0  0  0  0  0  0
   -1.8500    3.0129   -0.1000 H   0  0  0  0  0  0
   -1.6037   -1.2210   -0.8946 H   0  0  0  0  0  0
   -3.0220   -0.2907   -1.3618 H   0  0  0  0  0  0
   -3.7690   -0.2080    1.0114 H   0  0  0  0  0  0
   -2.4693   -1.4570    2.7792 H   0  0  0  0  0  0
   -1.1883   -1.8836    1.5603 H   0  0  0  0  0  0
   -4.1980   -2.6456    1.3698 H   0  0  0  0  0  0
   -2.9097   -3.0694    0.1554 H   0  0  0  0  0  0
    2.0680    2.4808    1.1710 H   0  0  0  0  0  0
    3.5059    1.0825    2.6283 H   0  0  0  0  0  0
   -0.5611    1.0343   -1.4779 N   0  3  0  0  0  0
   -1.0291    1.5912   -2.2025 H   0  0  0  0  0  0
   -0.3295    0.1077   -1.8546 H   0  0  0  0  0  0
  1  2  1  0  0  0
  1 17  1  0  0  0
  1 18  1  0  0  0
  1 19  1  0  0  0
  2  3  2  0  0  0
  2 15  1  0  0  0
  3  4  1  0  0  0
  3 20  1  0  0  0
  4  5  1  0  0  0
  4 13  2  0  0  0
  5  6  1  0  0  0
  5 21  1  0  0  0
  5 38  1  0  0  0
  6 22  1  0  0  0
  6 23  1  0  0  0
  6 24  1  0  0  0
  7  8  1  0  0  0
  7  9  1  0  0  0
  7 25  1  0  0  0
  7 38  1  0  0  0
  8 26  1  0  0  0
  8 27  1  0  0  0
  8 28  1  0  0  0
  9 10  1  0  0  0
  9 29  1  0  0  0
  9 30  1  0  0  0
 10 11  1  0  0  0
 10 12  1  0  0  0
 10 31  1  0  0  0
 11 12  1  0  0  0
 11 32  1  0  0  0
 11 33  1  0  0  0
 12 34  1  0  0  0
 12 35  1  0  0  0
 13 14  1  0  0  0
 13 36  1  0  0  0
 14 15  2  0  0  0
 14 37  1  0  0  0
 15 16  1  0  0  0
 38 39  1  0  0  0
 38 40  1  0  0  0
M  CHG  1  38   1
M  END
> <energy>
45.0051

> <chiral flag>
0

> <version>
0

> <i_ionizer_Ion_state_n>
1

> <i_ionizer_Tot_Q>
1

> <s_ionizer_Ion_centers>
38

> <s_ionizer_Ion_types>
N5

> <s_ionizer_Ion_ctrs_in>
7

> <r_ionizer_Ionization_penalty>
0.000148807

> <r_ionizer_Ionization_penalty_charging>
0.000148807

> <r_ionizer_Ionization_penalty_neutral>
0

$$$$
ZINC001258453575
                    3D
 Structure written by MMmdl.
 40 41  0  0  1  0            999 V2000
    3.8690    2.9911    0.0741 C   0  0  0  0  0  0
    2.8119    2.0673    0.5986 C   0  0  0  0  0  0
    2.4660    0.8946   -0.0905 C   0  0  0  0  0  0
    1.5167    0.0003    0.4380 C   0  0  0  0  0  0
    1.2323   -1.3186   -0.2637 C   0  0  1  0  0  0
    2.1131   -2.4003    0.3845 C   0  0  0  0  0  0
   -1.0456   -1.3287   -1.3038 C   0  0  2  0  0  0
   -0.8476    0.0844   -1.8700 C   0  0  0  0  0  0
   -2.5280   -1.5670   -0.9150 C   0  0  0  0  0  0
   -3.0662   -0.5431    0.0508 C   0  0  0  0  0  0
   -4.5370   -0.5120    0.3837 C   0  0  0  0  0  0
   -3.9372    0.5877   -0.4452 C   0  0  0  0  0  0
    0.9097    0.3081    1.6668 C   0  0  0  0  0  0
    1.2499    1.4662    2.3563 C   0  0  0  0  0  0
    2.1996    2.3285    1.8249 C   0  0  0  0  0  0
    2.5368    3.4212    2.5237 F   0  0  0  0  0  0
    4.8169    2.7959    0.5835 H   0  0  0  0  0  0
    3.5873    4.0372    0.2307 H   0  0  0  0  0  0
    4.0186    2.8546   -1.0009 H   0  0  0  0  0  0
    2.9560    0.6677   -1.0361 H   0  0  0  0  0  0
    1.5355   -1.2632   -1.3167 H   0  0  0  0  0  0
    3.1728   -2.1184    0.3390 H   0  0  0  0  0  0
    2.0068   -3.3610   -0.1335 H   0  0  0  0  0  0
    1.8665   -2.5524    1.4416 H   0  0  0  0  0  0
   -0.8147   -2.0365   -2.1099 H   0  0  0  0  0  0
    0.1482    0.2027   -2.3093 H   0  0  0  0  0  0
   -1.5767    0.2809   -2.6635 H   0  0  0  0  0  0
   -0.9771    0.8551   -1.1021 H   0  0  0  0  0  0
   -2.6370   -2.5633   -0.4620 H   0  0  0  0  0  0
   -3.1389   -1.5778   -1.8275 H   0  0  0  0  0  0
   -2.3811   -0.3493    0.8678 H   0  0  0  0  0  0
   -5.1971   -1.2177   -0.1057 H   0  0  0  0  0  0
   -4.8183   -0.2724    1.4039 H   0  0  0  0  0  0
   -4.1939    0.6346   -1.4979 H   0  0  0  0  0  0
   -3.8095    1.5621    0.0165 H   0  0  0  0  0  0
    0.1723   -0.3706    2.0922 H   0  0  0  0  0  0
    0.7892    1.6926    3.3129 H   0  0  0  0  0  0
   -0.2036   -1.7161   -0.1220 N   0  3  0  0  0  0
   -0.2501   -2.7355   -0.0086 H   0  0  0  0  0  0
   -0.5869   -1.2609    0.7148 H   0  0  0  0  0  0
  1  2  1  0  0  0
  1 17  1  0  0  0
  1 18  1  0  0  0
  1 19  1  0  0  0
  2  3  2  0  0  0
  2 15  1  0  0  0
  3  4  1  0  0  0
  3 20  1  0  0  0
  4  5  1  0  0  0
  4 13  2  0  0  0
  5  6  1  0  0  0
  5 21  1  0  0  0
  5 38  1  0  0  0
  6 22  1  0  0  0
  6 23  1  0  0  0
  6 24  1  0  0  0
  7  8  1  0  0  0
  7  9  1  0  0  0
  7 25  1  0  0  0
  7 38  1  0  0  0
  8 26  1  0  0  0
  8 27  1  0  0  0
  8 28  1  0  0  0
  9 10  1  0  0  0
  9 29  1  0  0  0
  9 30  1  0  0  0
 10 11  1  0  0  0
 10 12  1  0  0  0
 10 31  1  0  0  0
 11 12  1  0  0  0
 11 32  1  0  0  0
 11 33  1  0  0  0
 12 34  1  0  0  0
 12 35  1  0  0  0
 13 14  1  0  0  0
 13 36  1  0  0  0
 14 15  2  0  0  0
 14 37  1  0  0  0
 15 16  1  0  0  0
 38 39  1  0  0  0
 38 40  1  0  0  0
M  CHG  1  38   1
M  END
> <energy>
48.8169

> <chiral flag>
0

> <version>
0

> <i_ionizer_Ion_state_n>
1

> <i_ionizer_Tot_Q>
1

> <s_ionizer_Ion_centers>
38

> <s_ionizer_Ion_types>
N5

> <s_ionizer_Ion_ctrs_in>
7

> <r_ionizer_Ionization_penalty>
0.000148807

> <r_ionizer_Ionization_penalty_charging>
0.000148807

> <r_ionizer_Ionization_penalty_neutral>
0

$$$$
ZINC001258453607
                    3D
 Structure written by MMmdl.
 40 41  0  0  1  0            999 V2000
   -2.8158   -1.3405    1.4268 C   0  0  0  0  0  0
   -2.0900   -0.6106    0.2869 C   0  0  2  0  0  0
   -1.3818   -1.6309   -0.6320 C   0  0  0  0  0  0
   -0.0730   -2.2030   -0.1329 C   0  0  0  0  0  0
    1.0904   -2.3094   -1.0939 C   0  0  0  0  0  0
    0.4028   -3.5544   -0.6210 C   0  0  0  0  0  0
   -0.6342    1.5032    0.1393 C   0  0  0  0  0  0
   -1.3264    1.7854   -1.2109 C   0  0  0  0  0  0
   -0.8785    2.7909    0.9875 C   0  0  0  0  0  0
    0.8983    1.3143    0.0614 C   0  0  0  0  0  0
    1.6474    1.1937    1.2556 C   0  0  0  0  0  0
    3.0406    1.0761    1.2456 C   0  0  0  0  0  0
    3.7321    1.0837    0.0376 C   0  0  0  0  0  0
    3.0221    1.1864   -1.1515 C   0  0  0  0  0  0
    1.6272    1.2950   -1.1393 C   0  0  0  0  0  0
    1.0220    1.4077   -2.3261 F   0  0  0  0  0  0
   -3.3854   -0.6372    2.0469 H   0  0  0  0  0  0
   -3.5326   -2.0670    1.0303 H   0  0  0  0  0  0
   -2.1119   -1.8760    2.0783 H   0  0  0  0  0  0
   -2.8831   -0.1186   -0.2895 H   0  0  0  0  0  0
   -2.0752   -2.4617   -0.8281 H   0  0  0  0  0  0
   -1.2058   -1.1588   -1.6011 H   0  0  0  0  0  0
    0.1408   -1.9850    0.9038 H   0  0  0  0  0  0
    0.9571   -2.0191   -2.1341 H   0  0  0  0  0  0
    2.0892   -2.1102   -0.7148 H   0  0  0  0  0  0
   -0.2180   -4.1009   -1.3203 H   0  0  0  0  0  0
    0.9564   -4.1912    0.0625 H   0  0  0  0  0  0
   -0.9372    2.7132   -1.6512 H   0  0  0  0  0  0
   -1.1858    0.9819   -1.9404 H   0  0  0  0  0  0
   -2.4057    1.9356   -1.0817 H   0  0  0  0  0  0
   -0.8078    2.6045    2.0655 H   0  0  0  0  0  0
   -0.1394    3.5655    0.7422 H   0  0  0  0  0  0
   -1.8721    3.2183    0.8090 H   0  0  0  0  0  0
    1.1451    1.2153    2.2253 H   0  0  0  0  0  0
    3.5854    0.9877    2.1788 H   0  0  0  0  0  0
    4.8150    1.0020    0.0224 H   0  0  0  0  0  0
    3.5407    1.1822   -2.1067 H   0  0  0  0  0  0
   -1.2270    0.3947    1.0053 N   0  3  0  0  0  0
   -1.7995    0.8364    1.7343 H   0  0  0  0  0  0
   -0.4493   -0.1139    1.4422 H   0  0  0  0  0  0
  1  2  1  0  0  0
  1 17  1  0  0  0
  1 18  1  0  0  0
  1 19  1  0  0  0
  2  3  1  0  0  0
  2 20  1  0  0  0
  2 38  1  0  0  0
  3  4  1  0  0  0
  3 21  1  0  0  0
  3 22  1  0  0  0
  4  5  1  0  0  0
  4  6  1  0  0  0
  4 23  1  0  0  0
  5  6  1  0  0  0
  5 24  1  0  0  0
  5 25  1  0  0  0
  6 26  1  0  0  0
  6 27  1  0  0  0
  7  8  1  0  0  0
  7  9  1  0  0  0
  7 10  1  0  0  0
  7 38  1  0  0  0
  8 28  1  0  0  0
  8 29  1  0  0  0
  8 30  1  0  0  0
  9 31  1  0  0  0
  9 32  1  0  0  0
  9 33  1  0  0  0
 10 11  2  0  0  0
 10 15  1  0  0  0
 11 12  1  0  0  0
 11 34  1  0  0  0
 12 13  2  0  0  0
 12 35  1  0  0  0
 13 14  1  0  0  0
 13 36  1  0  0  0
 14 15  2  0  0  0
 14 37  1  0  0  0
 15 16  1  0  0  0
 38 39  1  0  0  0
 38 40  1  0  0  0
M  CHG  1  38   1
M  END
> <energy>
60.8042

> <chiral flag>
0

> <version>
0

> <i_ionizer_Ion_state_n>
1

> <i_ionizer_Tot_Q>
1

> <s_ionizer_Ion_centers>
38

> <s_ionizer_Ion_types>
N5

> <s_ionizer_Ion_ctrs_in>
7

> <r_ionizer_Ionization_penalty>
0.000148807

> <r_ionizer_Ionization_penalty_charging>
0.000148807

> <r_ionizer_Ionization_penalty_neutral>
0

$$$$
ZINC001258453608
                    3D
 Structure written by MMmdl.
 40 41  0  0  1  0            999 V2000
   -1.1831   -2.9519   -0.6334 C   0  0  0  0  0  0
   -1.1529   -1.4212   -0.5884 C   0  0  1  0  0  0
   -2.5515   -0.9253   -0.1329 C   0  0  0  0  0  0
   -2.7102    0.5692   -0.2306 C   0  0  0  0  0  0
   -2.5585    1.4477    0.9853 C   0  0  0  0  0  0
   -3.9188    1.2248    0.3869 C   0  0  0  0  0  0
    1.2771   -0.8354   -0.1118 C   0  0  0  0  0  0
    2.0352   -1.8820    0.7428 C   0  0  0  0  0  0
    1.5885   -1.1820   -1.5891 C   0  0  0  0  0  0
    1.7601    0.6093    0.1437 C   0  0  0  0  0  0
    2.7645    0.9321    1.0751 C   0  0  0  0  0  0
    3.1691    2.2577    1.2786 C   0  0  0  0  0  0
    2.5776    3.2933    0.5608 C   0  0  0  0  0  0
    1.5794    3.0029   -0.3619 C   0  0  0  0  0  0
    1.1823    1.6816   -0.5620 C   0  0  0  0  0  0
    0.2056    1.4577   -1.4537 F   0  0  0  0  0  0
   -1.9546   -3.2991   -1.3297 H   0  0  0  0  0  0
   -0.2344   -3.3808   -0.9640 H   0  0  0  0  0  0
   -1.4114   -3.3742    0.3521 H   0  0  0  0  0  0
   -0.9841   -1.0208   -1.5928 H   0  0  0  0  0  0
   -3.3156   -1.3790   -0.7773 H   0  0  0  0  0  0
   -2.7609   -1.2701    0.8886 H   0  0  0  0  0  0
   -2.3808    0.9575   -1.1886 H   0  0  0  0  0  0
   -2.0953    2.4188    0.8508 H   0  0  0  0  0  0
   -2.3469    0.9855    1.9428 H   0  0  0  0  0  0
   -4.3791    2.0470   -0.1491 H   0  0  0  0  0  0
   -4.6199    0.6085    0.9386 H   0  0  0  0  0  0
    1.9077   -1.7075    1.8187 H   0  0  0  0  0  0
    3.1111   -1.8736    0.5284 H   0  0  0  0  0  0
    1.6787   -2.8991    0.5380 H   0  0  0  0  0  0
    1.3716   -2.2275   -1.8254 H   0  0  0  0  0  0
    2.6548   -1.0298   -1.8023 H   0  0  0  0  0  0
    1.0387   -0.5611   -2.3030 H   0  0  0  0  0  0
    3.2567    0.1645    1.6667 H   0  0  0  0  0  0
    3.9485    2.4783    2.0048 H   0  0  0  0  0  0
    2.8918    4.3209    0.7223 H   0  0  0  0  0  0
    1.1004    3.7950   -0.9288 H   0  0  0  0  0  0
   -0.1422   -0.9475    0.4192 N   0  3  0  0  0  0
   -0.4334   -0.0212    0.7531 H   0  0  0  0  0  0
   -0.1392   -1.6090    1.2044 H   0  0  0  0  0  0
  1  2  1  0  0  0
  1 17  1  0  0  0
  1 18  1  0  0  0
  1 19  1  0  0  0
  2  3  1  0  0  0
  2 20  1  0  0  0
  2 38  1  0  0  0
  3  4  1  0  0  0
  3 21  1  0  0  0
  3 22  1  0  0  0
  4  5  1  0  0  0
  4  6  1  0  0  0
  4 23  1  0  0  0
  5  6  1  0  0  0
  5 24  1  0  0  0
  5 25  1  0  0  0
  6 26  1  0  0  0
  6 27  1  0  0  0
  7  8  1  0  0  0
  7  9  1  0  0  0
  7 10  1  0  0  0
  7 38  1  0  0  0
  8 28  1  0  0  0
  8 29  1  0  0  0
  8 30  1  0  0  0
  9 31  1  0  0  0
  9 32  1  0  0  0
  9 33  1  0  0  0
 10 11  2  0  0  0
 10 15  1  0  0  0
 11 12  1  0  0  0
 11 34  1  0  0  0
 12 13  2  0  0  0
 12 35  1  0  0  0
 13 14  1  0  0  0
 13 36  1  0  0  0
 14 15  2  0  0  0
 14 37  1  0  0  0
 15 16  1  0  0  0
 38 39  1  0  0  0
 38 40  1  0  0  0
M  CHG  1  38   1
M  END
> <energy>
56.8734

> <chiral flag>
0

> <version>
0

> <i_ionizer_Ion_state_n>
1

> <i_ionizer_Tot_Q>
1

> <s_ionizer_Ion_centers>
38

> <s_ionizer_Ion_types>
N5

> <s_ionizer_Ion_ctrs_in>
7

> <r_ionizer_Ionization_penalty>
0.000148807

> <r_ionizer_Ionization_penalty_charging>
0.000148807

> <r_ionizer_Ionization_penalty_neutral>
0

$$$$
ZINC001258453728
                    3D
 Structure written by MMmdl.
 43 44  0  0  1  0            999 V2000
   -1.8715   -0.0802    2.2486 C   0  0  0  0  0  0
   -1.2296   -0.9701    1.1762 C   0  0  2  0  0  0
   -0.3944   -2.0927    1.8640 C   0  0  0  0  0  0
    0.4249   -2.9014    0.8837 C   0  0  0  0  0  0
    1.9346   -2.7775    0.9041 C   0  0  0  0  0  0
    1.2740   -4.0563    1.3520 C   0  0  0  0  0  0
   -0.9272    0.2055   -1.0364 C   0  0  0  0  0  0
   -2.3036    0.9014   -1.0014 C   0  0  0  0  0  0
   -1.0369   -1.0598   -1.9181 C   0  0  0  0  0  0
    0.1014    1.1430   -1.7371 C   0  0  0  0  0  0
    0.4116    2.4289   -0.9690 C   0  0  0  0  0  0
    1.4544    2.3355    0.1757 C   0  0  0  0  0  0
    2.0524    3.6589   -0.3351 C   0  0  0  0  0  0
    1.4151    3.3607   -1.6996 C   0  0  0  0  0  0
   -2.5790   -0.6563    2.8566 H   0  0  0  0  0  0
   -1.1240    0.3495    2.9262 H   0  0  0  0  0  0
   -2.4311    0.7497    1.8059 H   0  0  0  0  0  0
   -2.0339   -1.4595    0.6181 H   0  0  0  0  0  0
   -1.0893   -2.7757    2.3719 H   0  0  0  0  0  0
    0.2531   -1.6641    2.6434 H   0  0  0  0  0  0
   -0.0717   -3.0453   -0.0665 H   0  0  0  0  0  0
    2.3993   -2.1571    1.6679 H   0  0  0  0  0  0
    2.4755   -2.7991   -0.0364 H   0  0  0  0  0  0
    1.3708   -4.9145    0.6912 H   0  0  0  0  0  0
    1.2848   -4.3013    2.4068 H   0  0  0  0  0  0
   -2.5202    1.3670   -1.9715 H   0  0  0  0  0  0
   -2.3384    1.7009   -0.2554 H   0  0  0  0  0  0
   -3.1139    0.1973   -0.7869 H   0  0  0  0  0  0
   -0.0487   -1.4572   -2.1788 H   0  0  0  0  0  0
   -1.5891   -1.8682   -1.4321 H   0  0  0  0  0  0
   -1.5626   -0.8452   -2.8563 H   0  0  0  0  0  0
   -0.2831    1.4137   -2.7297 H   0  0  0  0  0  0
    1.0373    0.5929   -1.9174 H   0  0  0  0  0  0
   -0.4900    2.9847   -0.6756 H   0  0  0  0  0  0
    2.1486    1.4866    0.1049 H   0  0  0  0  0  0
    1.0457    2.3731    1.1916 H   0  0  0  0  0  0
    3.1437    3.7138   -0.3261 H   0  0  0  0  0  0
    1.6380    4.5431    0.1590 H   0  0  0  0  0  0
    0.9593    4.2192   -2.1996 H   0  0  0  0  0  0
    2.0883    2.8488   -2.3971 H   0  0  0  0  0  0
   -0.3437   -0.1100    0.3189 N   0  3  0  0  0  0
   -0.1755    0.7744    0.8127 H   0  0  0  0  0  0
    0.5479   -0.6001    0.1813 H   0  0  0  0  0  0
  1  2  1  0  0  0
  1 15  1  0  0  0
  1 16  1  0  0  0
  1 17  1  0  0  0
  2  3  1  0  0  0
  2 18  1  0  0  0
  2 41  1  0  0  0
  3  4  1  0  0  0
  3 19  1  0  0  0
  3 20  1  0  0  0
  4  5  1  0  0  0
  4  6  1  0  0  0
  4 21  1  0  0  0
  5  6  1  0  0  0
  5 22  1  0  0  0
  5 23  1  0  0  0
  6 24  1  0  0  0
  6 25  1  0  0  0
  7  8  1  0  0  0
  7  9  1  0  0  0
  7 10  1  0  0  0
  7 41  1  0  0  0
  8 26  1  0  0  0
  8 27  1  0  0  0
  8 28  1  0  0  0
  9 29  1  0  0  0
  9 30  1  0  0  0
  9 31  1  0  0  0
 10 11  1  0  0  0
 10 32  1  0  0  0
 10 33  1  0  0  0
 11 12  1  0  0  0
 11 14  1  0  0  0
 11 34  1  0  0  0
 12 13  1  0  0  0
 12 35  1  0  0  0
 12 36  1  0  0  0
 13 14  1  0  0  0
 13 37  1  0  0  0
 13 38  1  0  0  0
 14 39  1  0  0  0
 14 40  1  0  0  0
 41 42  1  0  0  0
 41 43  1  0  0  0
M  CHG  1  41   1
M  END
> <energy>
53.8149

> <chiral flag>
0

> <version>
0

> <i_ionizer_Ion_state_n>
1

> <i_ionizer_Tot_Q>
1

> <s_ionizer_Ion_centers>
41

> <s_ionizer_Ion_types>
N5

> <s_ionizer_Ion_ctrs_in>
7

> <r_ionizer_Ionization_penalty>
0.000148807

> <r_ionizer_Ionization_penalty_charging>
0.000148807

> <r_ionizer_Ionization_penalty_neutral>
0

$$$$
ZINC001258453729
                    3D
 Structure written by MMmdl.
 43 44  0  0  1  0            999 V2000
   -3.2255   -1.1128   -0.9865 C   0  0  0  0  0  0
   -1.9576   -0.6080   -0.2724 C   0  0  1  0  0  0
   -0.9224   -1.7440   -0.1394 C   0  0  0  0  0  0
   -1.2730   -2.8883    0.7807 C   0  0  0  0  0  0
   -2.4459   -2.9788    1.7365 C   0  0  0  0  0  0
   -1.0852   -2.6192    2.2532 C   0  0  0  0  0  0
   -0.3471    1.3872   -0.5562 C   0  0  0  0  0  0
   -0.3241    1.5064    0.9769 C   0  0  0  0  0  0
   -0.5609    2.8180   -1.1295 C   0  0  0  0  0  0
    0.9794    0.8420   -1.1797 C   0  0  0  0  0  0
    2.2500    1.3750   -0.5079 C   0  0  0  0  0  0
    2.8648    0.4836    0.6178 C   0  0  0  0  0  0
    4.2511    0.9485    0.1256 C   0  0  0  0  0  0
    3.6018    1.1638   -1.2569 C   0  0  0  0  0  0
   -3.0185   -1.4024   -2.0235 H   0  0  0  0  0  0
   -3.6707   -1.9773   -0.4873 H   0  0  0  0  0  0
   -3.9960   -0.3309   -1.0058 H   0  0  0  0  0  0
   -2.2664   -0.2797    0.7264 H   0  0  0  0  0  0
   -0.6749   -2.1538   -1.1295 H   0  0  0  0  0  0
    0.0123   -1.3497    0.2664 H   0  0  0  0  0  0
   -0.8621   -3.8206    0.4045 H   0  0  0  0  0  0
   -2.8314   -3.9661    1.9816 H   0  0  0  0  0  0
   -3.2126   -2.2118    1.7511 H   0  0  0  0  0  0
   -0.5124   -3.3393    2.8315 H   0  0  0  0  0  0
   -0.9294   -1.5853    2.5472 H   0  0  0  0  0  0
   -1.2976    1.8422    1.3553 H   0  0  0  0  0  0
   -0.0794    0.5569    1.4639 H   0  0  0  0  0  0
    0.4116    2.2449    1.3157 H   0  0  0  0  0  0
   -0.6483    2.8130   -2.2248 H   0  0  0  0  0  0
   -1.4708    3.2839   -0.7344 H   0  0  0  0  0  0
    0.2712    3.4871   -0.8822 H   0  0  0  0  0  0
    1.0109   -0.2516   -1.1813 H   0  0  0  0  0  0
    1.0073    1.1302   -2.2403 H   0  0  0  0  0  0
    2.1505    2.4291   -0.2172 H   0  0  0  0  0  0
    2.7051   -0.5956    0.4990 H   0  0  0  0  0  0
    2.6262    0.7572    1.6468 H   0  0  0  0  0  0
    5.0495    0.2031    0.1720 H   0  0  0  0  0  0
    4.5916    1.8763    0.6007 H   0  0  0  0  0  0
    3.6409    0.2769   -1.8945 H   0  0  0  0  0  0
    3.9800    2.0246   -1.8159 H   0  0  0  0  0  0
   -1.5269    0.5919   -1.1132 N   0  3  0  0  0  0
   -1.2671    0.2495   -2.0456 H   0  0  0  0  0  0
   -2.3290    1.2279   -1.1933 H   0  0  0  0  0  0
  1  2  1  0  0  0
  1 15  1  0  0  0
  1 16  1  0  0  0
  1 17  1  0  0  0
  2  3  1  0  0  0
  2 18  1  0  0  0
  2 41  1  0  0  0
  3  4  1  0  0  0
  3 19  1  0  0  0
  3 20  1  0  0  0
  4  5  1  0  0  0
  4  6  1  0  0  0
  4 21  1  0  0  0
  5  6  1  0  0  0
  5 22  1  0  0  0
  5 23  1  0  0  0
  6 24  1  0  0  0
  6 25  1  0  0  0
  7  8  1  0  0  0
  7  9  1  0  0  0
  7 10  1  0  0  0
  7 41  1  0  0  0
  8 26  1  0  0  0
  8 27  1  0  0  0
  8 28  1  0  0  0
  9 29  1  0  0  0
  9 30  1  0  0  0
  9 31  1  0  0  0
 10 11  1  0  0  0
 10 32  1  0  0  0
 10 33  1  0  0  0
 11 12  1  0  0  0
 11 14  1  0  0  0
 11 34  1  0  0  0
 12 13  1  0  0  0
 12 35  1  0  0  0
 12 36  1  0  0  0
 13 14  1  0  0  0
 13 37  1  0  0  0
 13 38  1  0  0  0
 14 39  1  0  0  0
 14 40  1  0  0  0
 41 42  1  0  0  0
 41 43  1  0  0  0
M  CHG  1  41   1
M  END
> <energy>
58.5091

> <chiral flag>
0

> <version>
0

> <i_ionizer_Ion_state_n>
1

> <i_ionizer_Tot_Q>
1

> <s_ionizer_Ion_centers>
41

> <s_ionizer_Ion_types>
N5

> <s_ionizer_Ion_ctrs_in>
7

> <r_ionizer_Ionization_penalty>
0.000148807

> <r_ionizer_Ionization_penalty_charging>
0.000148807

> <r_ionizer_Ionization_penalty_neutral>
0

$$$$
ZINC001258454014
                    3D
 Structure written by MMmdl.
 43 45  0  0  1  0            999 V2000
    3.2526   -0.9968    2.2121 C   0  0  0  0  0  0
    2.9934   -0.8269    0.7421 C   0  0  0  0  0  0
    3.9492   -1.2942   -0.1635 C   0  0  0  0  0  0
    3.8340   -1.2309   -1.5062 N   0  0  0  0  0  0
    2.6986   -0.6857   -1.9794 C   0  0  0  0  0  0
    1.6910   -0.1817   -1.1728 C   0  0  0  0  0  0
    1.8272   -0.2180    0.2242 C   0  0  0  0  0  0
    0.7385    0.3364    1.1372 C   0  0  1  0  0  0
   -1.2625   -0.9616    0.2501 C   0  0  1  0  0  0
   -1.8131   -2.3521    0.6072 C   0  0  0  0  0  0
   -2.4076    0.0525    0.0358 C   0  0  0  0  0  0
   -3.3615   -0.3445   -1.0592 C   0  0  0  0  0  0
   -4.0334    0.7168   -1.8917 C   0  0  0  0  0  0
   -2.9905   -0.1743   -2.5089 C   0  0  0  0  0  0
    0.3105    1.7739    0.9189 C   0  0  0  0  0  0
    0.6921    2.7088   -0.2142 C   0  0  0  0  0  0
    1.3346    2.8765    1.1266 C   0  0  0  0  0  0
    3.3801   -0.0231    2.6954 H   0  0  0  0  0  0
    4.1650   -1.5754    2.3993 H   0  0  0  0  0  0
    2.4292   -1.5409    2.6860 H   0  0  0  0  0  0
    4.8719   -1.7573    0.1807 H   0  0  0  0  0  0
    2.6123   -0.6603   -3.0611 H   0  0  0  0  0  0
    0.8072    0.2406   -1.6401 H   0  0  0  0  0  0
    1.1875    0.3965    2.1355 H   0  0  0  0  0  0
   -0.7092   -1.0887   -0.6827 H   0  0  0  0  0  0
   -2.3918   -2.7767   -0.2207 H   0  0  0  0  0  0
   -0.9974   -3.0555    0.8151 H   0  0  0  0  0  0
   -2.4600   -2.3144    1.4906 H   0  0  0  0  0  0
   -1.9877    1.0337   -0.2063 H   0  0  0  0  0  0
   -2.9828    0.1735    0.9628 H   0  0  0  0  0  0
   -3.9726   -1.1984   -0.7856 H   0  0  0  0  0  0
   -5.0693    0.5586   -2.1708 H   0  0  0  0  0  0
   -3.7769    1.7558   -1.7216 H   0  0  0  0  0  0
   -2.0307    0.2644   -2.7547 H   0  0  0  0  0  0
   -3.3207   -0.9360   -3.2071 H   0  0  0  0  0  0
   -0.6383    1.9671    1.4144 H   0  0  0  0  0  0
    1.3475    2.4063   -1.0189 H   0  0  0  0  0  0
   -0.0414    3.4478   -0.5205 H   0  0  0  0  0  0
    1.0516    3.7368    1.7213 H   0  0  0  0  0  0
    2.3844    2.6131    1.2115 H   0  0  0  0  0  0
   -0.3934   -0.6188    1.4311 N   0  3  0  0  0  0
    0.0116   -1.4907    1.7917 H   0  0  0  0  0  0
   -0.9890   -0.1943    2.1517 H   0  0  0  0  0  0
  1  2  1  0  0  0
  1 18  1  0  0  0
  1 19  1  0  0  0
  1 20  1  0  0  0
  2  3  2  0  0  0
  2  7  1  0  0  0
  3  4  1  0  0  0
  3 21  1  0  0  0
  4  5  2  0  0  0
  5  6  1  0  0  0
  5 22  1  0  0  0
  6  7  2  0  0  0
  6 23  1  0  0  0
  7  8  1  0  0  0
  8 15  1  0  0  0
  8 24  1  0  0  0
  8 41  1  0  0  0
  9 10  1  0  0  0
  9 11  1  0  0  0
  9 25  1  0  0  0
  9 41  1  0  0  0
 10 26  1  0  0  0
 10 27  1  0  0  0
 10 28  1  0  0  0
 11 12  1  0  0  0
 11 29  1  0  0  0
 11 30  1  0  0  0
 12 13  1  0  0  0
 12 14  1  0  0  0
 12 31  1  0  0  0
 13 14  1  0  0  0
 13 32  1  0  0  0
 13 33  1  0  0  0
 14 34  1  0  0  0
 14 35  1  0  0  0
 15 16  1  0  0  0
 15 17  1  0  0  0
 15 36  1  0  0  0
 16 17  1  0  0  0
 16 37  1  0  0  0
 16 38  1  0  0  0
 17 39  1  0  0  0
 17 40  1  0  0  0
 41 42  1  0  0  0
 41 43  1  0  0  0
M  CHG  1  41   1
M  END
> <energy>
71.8511

> <chiral flag>
0

> <version>
0

> <i_ionizer_Ion_state_n>
2

> <i_ionizer_Tot_Q>
1

> <s_ionizer_Ion_centers>
41

> <s_ionizer_Ion_types>
N5

> <s_ionizer_Ion_ctrs_in>
9

> <r_ionizer_Ionization_penalty>
0.0075612

> <r_ionizer_Ionization_penalty_charging>
0.000148807

> <r_ionizer_Ionization_penalty_neutral>
0.00741239

$$$$
ZINC001258454015
                    3D
 Structure written by MMmdl.
 43 45  0  0  1  0            999 V2000
    1.9843   -2.3231   -0.4588 C   0  0  0  0  0  0
    2.4453   -1.3332    0.5694 C   0  0  0  0  0  0
    3.3391   -1.7533    1.5530 C   0  0  0  0  0  0
    3.8370   -0.9632    2.5266 N   0  0  0  0  0  0
    3.4426    0.3224    2.5138 C   0  0  0  0  0  0
    2.5599    0.8503    1.5844 C   0  0  0  0  0  0
    2.0227    0.0103    0.5919 C   0  0  0  0  0  0
    0.9799    0.5552   -0.3795 C   0  0  2  0  0  0
   -1.1820   -0.1577    0.5610 C   0  0  1  0  0  0
   -1.2610   -0.4571    2.0609 C   0  0  0  0  0  0
   -2.5675    0.2471    0.0097 C   0  0  0  0  0  0
   -3.3775   -0.9503   -0.4116 C   0  0  0  0  0  0
   -3.2138   -1.5101   -1.8012 C   0  0  0  0  0  0
   -4.4814   -0.7927   -1.4217 C   0  0  0  0  0  0
    1.5524    1.7120   -1.1763 C   0  0  0  0  0  0
    0.6729    2.4700   -2.1493 C   0  0  0  0  0  0
    1.2256    3.1719   -0.9411 C   0  0  0  0  0  0
    2.2622   -1.9848   -1.4628 H   0  0  0  0  0  0
    0.9012   -2.4673   -0.4063 H   0  0  0  0  0  0
    2.4444   -3.3065   -0.3094 H   0  0  0  0  0  0
    3.6931   -2.7803    1.5911 H   0  0  0  0  0  0
    3.8564    0.9420    3.3013 H   0  0  0  0  0  0
    2.2840    1.8998    1.6439 H   0  0  0  0  0  0
    0.7370   -0.1974   -1.1368 H   0  0  0  0  0  0
   -0.8528   -1.0674    0.0487 H   0  0  0  0  0  0
   -0.2748   -0.7065    2.4720 H   0  0  0  0  0  0
   -1.6490    0.4019    2.6228 H   0  0  0  0  0  0
   -1.9257   -1.3083    2.2500 H   0  0  0  0  0  0
   -2.4476    0.9120   -0.8575 H   0  0  0  0  0  0
   -3.1288    0.8210    0.7583 H   0  0  0  0  0  0
   -3.5529   -1.6427    0.4036 H   0  0  0  0  0  0
   -2.5407   -1.0087   -2.4892 H   0  0  0  0  0  0
   -3.2493   -2.5871   -1.9233 H   0  0  0  0  0  0
   -5.3792   -1.3848   -1.2878 H   0  0  0  0  0  0
   -4.6543    0.1911   -1.8392 H   0  0  0  0  0  0
    2.5461    1.4731   -1.5485 H   0  0  0  0  0  0
    1.0868    2.7123   -3.1202 H   0  0  0  0  0  0
   -0.3897    2.2532   -2.1720 H   0  0  0  0  0  0
    2.0153    3.8966   -1.0921 H   0  0  0  0  0  0
    0.5189    3.4514   -0.1660 H   0  0  0  0  0  0
   -0.2609    0.9822    0.3216 N   0  3  0  0  0  0
   -0.0054    1.3979    1.2251 H   0  0  0  0  0  0
   -0.7428    1.6832   -0.2535 H   0  0  0  0  0  0
  1  2  1  0  0  0
  1 18  1  0  0  0
  1 19  1  0  0  0
  1 20  1  0  0  0
  2  3  2  0  0  0
  2  7  1  0  0  0
  3  4  1  0  0  0
  3 21  1  0  0  0
  4  5  2  0  0  0
  5  6  1  0  0  0
  5 22  1  0  0  0
  6  7  2  0  0  0
  6 23  1  0  0  0
  7  8  1  0  0  0
  8 15  1  0  0  0
  8 24  1  0  0  0
  8 41  1  0  0  0
  9 10  1  0  0  0
  9 11  1  0  0  0
  9 25  1  0  0  0
  9 41  1  0  0  0
 10 26  1  0  0  0
 10 27  1  0  0  0
 10 28  1  0  0  0
 11 12  1  0  0  0
 11 29  1  0  0  0
 11 30  1  0  0  0
 12 13  1  0  0  0
 12 14  1  0  0  0
 12 31  1  0  0  0
 13 14  1  0  0  0
 13 32  1  0  0  0
 13 33  1  0  0  0
 14 34  1  0  0  0
 14 35  1  0  0  0
 15 16  1  0  0  0
 15 17  1  0  0  0
 15 36  1  0  0  0
 16 17  1  0  0  0
 16 37  1  0  0  0
 16 38  1  0  0  0
 17 39  1  0  0  0
 17 40  1  0  0  0
 41 42  1  0  0  0
 41 43  1  0  0  0
M  CHG  1  41   1
M  END
> <energy>
62.9246

> <chiral flag>
0

> <version>
0

> <i_ionizer_Ion_state_n>
2

> <i_ionizer_Tot_Q>
1

> <s_ionizer_Ion_centers>
41

> <s_ionizer_Ion_types>
N5

> <s_ionizer_Ion_ctrs_in>
9

> <r_ionizer_Ionization_penalty>
0.0075612

> <r_ionizer_Ionization_penalty_charging>
0.000148807

> <r_ionizer_Ionization_penalty_neutral>
0.00741239

$$$$
ZINC001258454016
                    3D
 Structure written by MMmdl.
 43 45  0  0  1  0            999 V2000
    1.9708   -2.3559   -0.6987 C   0  0  0  0  0  0
    2.8437   -1.3429   -0.0170 C   0  0  0  0  0  0
    4.1378   -1.7230    0.3500 C   0  0  0  0  0  0
    5.0380   -0.9220    0.9615 N   0  0  0  0  0  0
    4.6336    0.3312    1.2310 C   0  0  0  0  0  0
    3.3754    0.8167    0.9155 C   0  0  0  0  0  0
    2.4429   -0.0227    0.2762 C   0  0  0  0  0  0
    1.0761    0.5769   -0.0645 C   0  0  1  0  0  0
   -1.3312    0.3807    0.4778 C   0  0  2  0  0  0
   -1.5537    1.0954    1.8150 C   0  0  0  0  0  0
   -2.3853   -0.7280    0.2609 C   0  0  0  0  0  0
   -3.7660   -0.1830    0.0164 C   0  0  0  0  0  0
   -4.8141   -0.1801    1.1001 C   0  0  0  0  0  0
   -4.9257   -1.1430   -0.0501 C   0  0  0  0  0  0
    0.9468    0.7537   -1.5611 C   0  0  0  0  0  0
    1.8855    1.6540   -2.3351 C   0  0  0  0  0  0
    0.4523    2.0563   -2.1508 C   0  0  0  0  0  0
    2.4833   -3.3199   -0.7998 H   0  0  0  0  0  0
    1.7144   -2.0328   -1.7107 H   0  0  0  0  0  0
    1.0623   -2.5486   -0.1229 H   0  0  0  0  0  0
    4.5041   -2.7284    0.1516 H   0  0  0  0  0  0
    5.3732    0.9601    1.7187 H   0  0  0  0  0  0
    3.1332    1.8448    1.1613 H   0  0  0  0  0  0
    1.0121    1.5586    0.4222 H   0  0  0  0  0  0
   -1.4311    1.1117   -0.3326 H   0  0  0  0  0  0
   -0.7797    1.8469    2.0016 H   0  0  0  0  0  0
   -2.5197    1.6122    1.8266 H   0  0  0  0  0  0
   -1.5469    0.3870    2.6520 H   0  0  0  0  0  0
   -2.3887   -1.4214    1.1123 H   0  0  0  0  0  0
   -2.1094   -1.3152   -0.6254 H   0  0  0  0  0  0
   -3.7715    0.6290   -0.7027 H   0  0  0  0  0  0
   -5.5056    0.6546    1.1329 H   0  0  0  0  0  0
   -4.5609   -0.5821    2.0739 H   0  0  0  0  0  0
   -4.7421   -2.1925    0.1488 H   0  0  0  0  0  0
   -5.6848   -0.9636   -0.8035 H   0  0  0  0  0  0
    0.6193   -0.1519   -2.0587 H   0  0  0  0  0  0
    2.2047    1.3175   -3.3155 H   0  0  0  0  0  0
    2.6422    2.2150   -1.7985 H   0  0  0  0  0  0
    0.2446    2.8894   -1.4897 H   0  0  0  0  0  0
   -0.2092    1.9997   -3.0084 H   0  0  0  0  0  0
   -0.0038   -0.2991    0.4625 N   0  3  0  0  0  0
   -0.0684   -1.1353   -0.1298 H   0  0  0  0  0  0
    0.2356   -0.5767    1.4216 H   0  0  0  0  0  0
  1  2  1  0  0  0
  1 18  1  0  0  0
  1 19  1  0  0  0
  1 20  1  0  0  0
  2  3  2  0  0  0
  2  7  1  0  0  0
  3  4  1  0  0  0
  3 21  1  0  0  0
  4  5  2  0  0  0
  5  6  1  0  0  0
  5 22  1  0  0  0
  6  7  2  0  0  0
  6 23  1  0  0  0
  7  8  1  0  0  0
  8 15  1  0  0  0
  8 24  1  0  0  0
  8 41  1  0  0  0
  9 10  1  0  0  0
  9 11  1  0  0  0
  9 25  1  0  0  0
  9 41  1  0  0  0
 10 26  1  0  0  0
 10 27  1  0  0  0
 10 28  1  0  0  0
 11 12  1  0  0  0
 11 29  1  0  0  0
 11 30  1  0  0  0
 12 13  1  0  0  0
 12 14  1  0  0  0
 12 31  1  0  0  0
 13 14  1  0  0  0
 13 32  1  0  0  0
 13 33  1  0  0  0
 14 34  1  0  0  0
 14 35  1  0  0  0
 15 16  1  0  0  0
 15 17  1  0  0  0
 15 36  1  0  0  0
 16 17  1  0  0  0
 16 37  1  0  0  0
 16 38  1  0  0  0
 17 39  1  0  0  0
 17 40  1  0  0  0
 41 42  1  0  0  0
 41 43  1  0  0  0
M  CHG  1  41   1
M  END
> <energy>
60.4727

> <chiral flag>
0

> <version>
0

> <i_ionizer_Ion_state_n>
2

> <i_ionizer_Tot_Q>
1

> <s_ionizer_Ion_centers>
41

> <s_ionizer_Ion_types>
N5

> <s_ionizer_Ion_ctrs_in>
9

> <r_ionizer_Ionization_penalty>
0.0075612

> <r_ionizer_Ionization_penalty_charging>
0.000148807

> <r_ionizer_Ionization_penalty_neutral>
0.00741239

$$$$
ZINC001258454017
                    3D
 Structure written by MMmdl.
 43 45  0  0  1  0            999 V2000
   -2.0190   -1.2171    1.8420 C   0  0  0  0  0  0
   -2.6165   -0.7567    0.5478 C   0  0  0  0  0  0
   -3.9007   -1.1867    0.2033 C   0  0  0  0  0  0
   -4.5412   -0.8700   -0.9432 N   0  0  0  0  0  0
   -3.8683   -0.0851   -1.8040 C   0  0  0  0  0  0
   -2.5917    0.3965   -1.5685 C   0  0  0  0  0  0
   -1.9314    0.0645   -0.3702 C   0  0  0  0  0  0
   -0.5130    0.5929   -0.1263 C   0  0  2  0  0  0
    1.7590    0.5638   -1.1587 C   0  0  2  0  0  0
    2.3971    0.2404   -2.5179 C   0  0  0  0  0  0
    2.5817   -0.0528   -0.0052 C   0  0  0  0  0  0
    2.4917   -1.5524    0.1148 C   0  0  0  0  0  0
    3.2718   -2.2470    1.2039 C   0  0  0  0  0  0
    1.7750   -2.1832    1.2813 C   0  0  0  0  0  0
   -0.5641    2.1036   -0.0354 C   0  0  0  0  0  0
    0.2355    2.8530    1.0064 C   0  0  0  0  0  0
   -1.2584    2.7878    1.1221 C   0  0  0  0  0  0
   -2.7468   -1.7585    2.4574 H   0  0  0  0  0  0
   -1.6697   -0.3674    2.4349 H   0  0  0  0  0  0
   -1.1863   -1.8978    1.6463 H   0  0  0  0  0  0
   -4.4751   -1.8330    0.8636 H   0  0  0  0  0  0
   -4.3923    0.1543   -2.7240 H   0  0  0  0  0  0
   -2.1036    1.0123   -2.3175 H   0  0  0  0  0  0
   -0.1246    0.1827    0.8097 H   0  0  0  0  0  0
    1.8194    1.6543   -1.0605 H   0  0  0  0  0  0
    1.8951    0.7897   -3.3229 H   0  0  0  0  0  0
    3.4541    0.5309   -2.5291 H   0  0  0  0  0  0
    2.3395   -0.8257   -2.7583 H   0  0  0  0  0  0
    2.2815    0.4118    0.9415 H   0  0  0  0  0  0
    3.6374    0.2129   -0.1477 H   0  0  0  0  0  0
    2.4673   -2.0608   -0.8415 H   0  0  0  0  0  0
    3.8462   -1.6430    1.8969 H   0  0  0  0  0  0
    3.7282   -3.2027    0.9722 H   0  0  0  0  0  0
    1.3405   -1.5392    2.0370 H   0  0  0  0  0  0
    1.2155   -3.0939    1.1012 H   0  0  0  0  0  0
   -0.6710    2.5722   -1.0091 H   0  0  0  0  0  0
    0.6796    3.7991    0.7192 H   0  0  0  0  0  0
    0.8179    2.2968    1.7299 H   0  0  0  0  0  0
   -1.6877    2.1777    1.9070 H   0  0  0  0  0  0
   -1.8263    3.6869    0.9070 H   0  0  0  0  0  0
    0.3350    0.1269   -1.2680 N   0  3  0  0  0  0
    0.3096   -0.8991   -1.2961 H   0  0  0  0  0  0
   -0.0558    0.5030   -2.1398 H   0  0  0  0  0  0
  1  2  1  0  0  0
  1 18  1  0  0  0
  1 19  1  0  0  0
  1 20  1  0  0  0
  2  3  2  0  0  0
  2  7  1  0  0  0
  3  4  1  0  0  0
  3 21  1  0  0  0
  4  5  2  0  0  0
  5  6  1  0  0  0
  5 22  1  0  0  0
  6  7  2  0  0  0
  6 23  1  0  0  0
  7  8  1  0  0  0
  8 15  1  0  0  0
  8 24  1  0  0  0
  8 41  1  0  0  0
  9 10  1  0  0  0
  9 11  1  0  0  0
  9 25  1  0  0  0
  9 41  1  0  0  0
 10 26  1  0  0  0
 10 27  1  0  0  0
 10 28  1  0  0  0
 11 12  1  0  0  0
 11 29  1  0  0  0
 11 30  1  0  0  0
 12 13  1  0  0  0
 12 14  1  0  0  0
 12 31  1  0  0  0
 13 14  1  0  0  0
 13 32  1  0  0  0
 13 33  1  0  0  0
 14 34  1  0  0  0
 14 35  1  0  0  0
 15 16  1  0  0  0
 15 17  1  0  0  0
 15 36  1  0  0  0
 16 17  1  0  0  0
 16 37  1  0  0  0
 16 38  1  0  0  0
 17 39  1  0  0  0
 17 40  1  0  0  0
 41 42  1  0  0  0
 41 43  1  0  0  0
M  CHG  1  41   1
M  END
> <energy>
58.8227

> <chiral flag>
0

> <version>
0

> <i_ionizer_Ion_state_n>
2

> <i_ionizer_Tot_Q>
1

> <s_ionizer_Ion_centers>
41

> <s_ionizer_Ion_types>
N5

> <s_ionizer_Ion_ctrs_in>
9

> <r_ionizer_Ionization_penalty>
0.0075612

> <r_ionizer_Ionization_penalty_charging>
0.000148807

> <r_ionizer_Ionization_penalty_neutral>
0.00741239

$$$$
ZINC001258454028
                    3D
 Structure written by MMmdl.
 44 46  0  0  1  0            999 V2000
   -3.6151    1.1588   -1.2898 C   0  0  0  0  0  0
   -2.7127    0.2977   -0.4028 C   0  0  1  0  0  0
   -2.9709   -1.2005   -0.6891 C   0  0  0  0  0  0
   -2.3680   -2.0959    0.3606 C   0  0  0  0  0  0
   -2.7313   -3.5568    0.4029 C   0  0  0  0  0  0
   -3.2165   -2.6292    1.4836 C   0  0  0  0  0  0
   -0.8318    1.8904   -0.2111 C   0  0  0  0  0  0
    0.7113    1.9487   -0.1038 C   0  0  2  0  0  0
    1.4177    1.5957   -1.4374 C   0  0  0  0  0  0
    2.1261    0.2406   -1.4213 C   0  0  0  0  0  0
    3.0803    0.1875   -0.2587 C   0  0  0  0  0  0
    4.3653   -0.3470   -0.3792 C   0  0  0  0  0  0
    5.2139   -0.3876    0.7290 C   0  0  0  0  0  0
    4.7769    0.1013    1.9608 C   0  0  0  0  0  0
    3.4878    0.6169    2.0918 C   0  0  0  0  0  0
    2.6342    0.6633    0.9849 C   0  0  0  0  0  0
    1.2024    1.1198    1.1073 C   0  0  0  0  0  0
   -4.6697    0.9186   -1.1120 H   0  0  0  0  0  0
   -3.4095    0.9950   -2.3535 H   0  0  0  0  0  0
   -3.4887    2.2244   -1.0758 H   0  0  0  0  0  0
   -2.9590    0.4931    0.6489 H   0  0  0  0  0  0
   -2.5572   -1.4753   -1.6679 H   0  0  0  0  0  0
   -4.0503   -1.3852   -0.7560 H   0  0  0  0  0  0
   -1.3320   -1.8482    0.5694 H   0  0  0  0  0  0
   -1.9450   -4.2608    0.6524 H   0  0  0  0  0  0
   -3.4480   -3.9252   -0.3225 H   0  0  0  0  0  0
   -2.7639   -2.7094    2.4646 H   0  0  0  0  0  0
   -4.2714   -2.3834    1.5033 H   0  0  0  0  0  0
   -1.1701    2.6483   -0.9283 H   0  0  0  0  0  0
   -1.2598    2.1514    0.7662 H   0  0  0  0  0  0
    0.9625    2.9994    0.1074 H   0  0  0  0  0  0
    2.1735    2.3709   -1.6339 H   0  0  0  0  0  0
    0.7256    1.6479   -2.2865 H   0  0  0  0  0  0
    1.4043   -0.5789   -1.3324 H   0  0  0  0  0  0
    2.6647    0.1042   -2.3660 H   0  0  0  0  0  0
    4.7137   -0.7369   -1.3317 H   0  0  0  0  0  0
    6.2134   -0.8035    0.6337 H   0  0  0  0  0  0
    5.4359    0.0655    2.8230 H   0  0  0  0  0  0
    3.1477    0.9672    3.0619 H   0  0  0  0  0  0
    0.5921    0.2165    1.2359 H   0  0  0  0  0  0
    1.0696    1.7154    2.0195 H   0  0  0  0  0  0
   -1.2621    0.5411   -0.6485 N   0  3  0  0  0  0
   -0.7182   -0.1611   -0.1334 H   0  0  0  0  0  0
   -1.0778    0.4466   -1.6542 H   0  0  0  0  0  0
  1  2  1  0  0  0
  1 18  1  0  0  0
  1 19  1  0  0  0
  1 20  1  0  0  0
  2  3  1  0  0  0
  2 21  1  0  0  0
  2 42  1  0  0  0
  3  4  1  0  0  0
  3 22  1  0  0  0
  3 23  1  0  0  0
  4  5  1  0  0  0
  4  6  1  0  0  0
  4 24  1  0  0  0
  5  6  1  0  0  0
  5 25  1  0  0  0
  5 26  1  0  0  0
  6 27  1  0  0  0
  6 28  1  0  0  0
  7  8  1  0  0  0
  7 29  1  0  0  0
  7 30  1  0  0  0
  7 42  1  0  0  0
  8  9  1  0  0  0
  8 17  1  0  0  0
  8 31  1  0  0  0
  9 10  1  0  0  0
  9 32  1  0  0  0
  9 33  1  0  0  0
 10 11  1  0  0  0
 10 34  1  0  0  0
 10 35  1  0  0  0
 11 12  2  0  0  0
 11 16  1  0  0  0
 12 13  1  0  0  0
 12 36  1  0  0  0
 13 14  2  0  0  0
 13 37  1  0  0  0
 14 15  1  0  0  0
 14 38  1  0  0  0
 15 16  2  0  0  0
 15 39  1  0  0  0
 16 17  1  0  0  0
 17 40  1  0  0  0
 17 41  1  0  0  0
 42 43  1  0  0  0
 42 44  1  0  0  0
M  CHG  1  42   1
M  END
> <energy>
58.8636

> <chiral flag>
0

> <version>
0

> <i_ionizer_Ion_state_n>
1

> <i_ionizer_Tot_Q>
1

> <s_ionizer_Ion_centers>
42

> <s_ionizer_Ion_types>
N5

> <s_ionizer_Ion_ctrs_in>
7

> <r_ionizer_Ionization_penalty>
0.000148807

> <r_ionizer_Ionization_penalty_charging>
0.000148807

> <r_ionizer_Ionization_penalty_neutral>
0

$$$$
ZINC001258454029
                    3D
 Structure written by MMmdl.
 44 46  0  0  1  0            999 V2000
   -3.7293    1.9035   -1.0118 C   0  0  0  0  0  0
   -2.7394    1.1738   -0.0902 C   0  0  2  0  0  0
   -1.4408    2.0176   -0.0115 C   0  0  0  0  0  0
   -0.8458    2.0940    1.3744 C   0  0  0  0  0  0
   -0.2361    3.3909    1.8563 C   0  0  0  0  0  0
    0.6526    2.2259    1.5345 C   0  0  0  0  0  0
   -1.9550   -1.1703    0.2283 C   0  0  0  0  0  0
   -0.4203   -1.2183    0.2057 C   0  0  1  0  0  0
    0.1138   -2.3559    1.1061 C   0  0  0  0  0  0
    1.4925   -2.9154    0.7110 C   0  0  0  0  0  0
    2.3064   -1.9931   -0.1586 C   0  0  0  0  0  0
    3.6996   -1.9301   -0.0607 C   0  0  0  0  0  0
    4.4257   -1.1023   -0.9168 C   0  0  0  0  0  0
    3.7685   -0.3537   -1.8936 C   0  0  0  0  0  0
    2.3826   -0.4253   -2.0114 C   0  0  0  0  0  0
    1.6490   -1.2332   -1.1392 C   0  0  0  0  0  0
    0.1467   -1.3027   -1.2177 C   0  0  0  0  0  0
   -4.6790    1.3657   -1.0888 H   0  0  0  0  0  0
   -3.9523    2.9040   -0.6271 H   0  0  0  0  0  0
   -3.3231    2.0206   -2.0226 H   0  0  0  0  0  0
   -3.2174    1.0995    0.8947 H   0  0  0  0  0  0
   -0.7013    1.6379   -0.7266 H   0  0  0  0  0  0
   -1.6521    3.0447   -0.3353 H   0  0  0  0  0  0
   -1.3628    1.4836    2.1033 H   0  0  0  0  0  0
   -0.3664    3.6559    2.8988 H   0  0  0  0  0  0
   -0.2122    4.2409    1.1827 H   0  0  0  0  0  0
    1.1208    1.6995    2.3590 H   0  0  0  0  0  0
    1.2662    2.2766    0.6412 H   0  0  0  0  0  0
   -2.3276   -1.0595    1.2535 H   0  0  0  0  0  0
   -2.3162   -2.1503   -0.1146 H   0  0  0  0  0  0
   -0.0431   -0.2939    0.6482 H   0  0  0  0  0  0
    0.1720   -1.9703    2.1319 H   0  0  0  0  0  0
   -0.5950   -3.1925    1.1523 H   0  0  0  0  0  0
    2.0409   -3.1793    1.6230 H   0  0  0  0  0  0
    1.3549   -3.8505    0.1537 H   0  0  0  0  0  0
    4.2275   -2.5277    0.6784 H   0  0  0  0  0  0
    5.5061   -1.0434   -0.8287 H   0  0  0  0  0  0
    4.3338    0.2837   -2.5653 H   0  0  0  0  0  0
    1.8753    0.1583   -2.7752 H   0  0  0  0  0  0
   -0.2213   -0.4712   -1.8304 H   0  0  0  0  0  0
   -0.1584   -2.2320   -1.7137 H   0  0  0  0  0  0
   -2.5718   -0.1862   -0.7052 N   0  3  0  0  0  0
   -3.4956   -0.5353   -0.9863 H   0  0  0  0  0  0
   -1.9719   -0.0998   -1.5340 H   0  0  0  0  0  0
  1  2  1  0  0  0
  1 18  1  0  0  0
  1 19  1  0  0  0
  1 20  1  0  0  0
  2  3  1  0  0  0
  2 21  1  0  0  0
  2 42  1  0  0  0
  3  4  1  0  0  0
  3 22  1  0  0  0
  3 23  1  0  0  0
  4  5  1  0  0  0
  4  6  1  0  0  0
  4 24  1  0  0  0
  5  6  1  0  0  0
  5 25  1  0  0  0
  5 26  1  0  0  0
  6 27  1  0  0  0
  6 28  1  0  0  0
  7  8  1  0  0  0
  7 29  1  0  0  0
  7 30  1  0  0  0
  7 42  1  0  0  0
  8  9  1  0  0  0
  8 17  1  0  0  0
  8 31  1  0  0  0
  9 10  1  0  0  0
  9 32  1  0  0  0
  9 33  1  0  0  0
 10 11  1  0  0  0
 10 34  1  0  0  0
 10 35  1  0  0  0
 11 12  2  0  0  0
 11 16  1  0  0  0
 12 13  1  0  0  0
 12 36  1  0  0  0
 13 14  2  0  0  0
 13 37  1  0  0  0
 14 15  1  0  0  0
 14 38  1  0  0  0
 15 16  2  0  0  0
 15 39  1  0  0  0
 16 17  1  0  0  0
 17 40  1  0  0  0
 17 41  1  0  0  0
 42 43  1  0  0  0
 42 44  1  0  0  0
M  CHG  1  42   1
M  END
> <energy>
64.5939

> <chiral flag>
0

> <version>
0

> <i_ionizer_Ion_state_n>
1

> <i_ionizer_Tot_Q>
1

> <s_ionizer_Ion_centers>
42

> <s_ionizer_Ion_types>
N5

> <s_ionizer_Ion_ctrs_in>
7

> <r_ionizer_Ionization_penalty>
0.000148807

> <r_ionizer_Ionization_penalty_charging>
0.000148807

> <r_ionizer_Ionization_penalty_neutral>
0

$$$$
ZINC001258454030
                    3D
 Structure written by MMmdl.
 44 46  0  0  1  0            999 V2000
   -2.0457    2.6870    1.0185 C   0  0  0  0  0  0
   -1.5784    1.3551    0.4141 C   0  0  2  0  0  0
   -2.1631    1.1782   -1.0155 C   0  0  0  0  0  0
   -1.0800    1.0093   -2.0517 C   0  0  0  0  0  0
   -0.3281    2.2017   -2.5811 C   0  0  0  0  0  0
   -1.2860    1.4610   -3.4739 C   0  0  0  0  0  0
   -1.3587   -1.0269    0.9398 C   0  0  0  0  0  0
   -0.4084   -1.6552    1.9865 C   0  0  2  0  0  0
    0.4794   -0.6772    2.7678 C   0  0  0  0  0  0
    1.5204    0.0532    1.9155 C   0  0  0  0  0  0
    1.9716   -0.6883    0.6817 C   0  0  0  0  0  0
    2.8591   -0.0568   -0.2064 C   0  0  0  0  0  0
    3.3778   -0.7458   -1.3041 C   0  0  0  0  0  0
    2.9989   -2.0656   -1.5316 C   0  0  0  0  0  0
    2.0747   -2.6871   -0.6902 C   0  0  0  0  0  0
    1.5450   -2.0049    0.4147 C   0  0  0  0  0  0
    0.5347   -2.6789    1.3117 C   0  0  0  0  0  0
   -3.1371    2.7350    1.1026 H   0  0  0  0  0  0
   -1.6179    2.8467    2.0174 H   0  0  0  0  0  0
   -1.7212    3.5222    0.3839 H   0  0  0  0  0  0
   -0.4874    1.4250    0.3534 H   0  0  0  0  0  0
   -2.8021    2.0323   -1.2727 H   0  0  0  0  0  0
   -2.8101    0.2914   -1.0587 H   0  0  0  0  0  0
   -0.5166    0.0961   -1.9065 H   0  0  0  0  0  0
    0.7339    2.0873   -2.7699 H   0  0  0  0  0  0
   -0.6093    3.1865   -2.2298 H   0  0  0  0  0  0
   -0.8747    0.8346   -4.2583 H   0  0  0  0  0  0
   -2.2142    1.9565   -3.7312 H   0  0  0  0  0  0
   -2.1869   -1.7309    0.7731 H   0  0  0  0  0  0
   -0.8675   -0.9627   -0.0359 H   0  0  0  0  0  0
   -1.0295   -2.1949    2.7157 H   0  0  0  0  0  0
   -0.1270    0.0434    3.3243 H   0  0  0  0  0  0
    1.0143   -1.2545    3.5343 H   0  0  0  0  0  0
    1.1392    1.0399    1.6377 H   0  0  0  0  0  0
    2.4051    0.2346    2.5384 H   0  0  0  0  0  0
    3.1732    0.9699   -0.0303 H   0  0  0  0  0  0
    4.0866   -0.2599   -1.9672 H   0  0  0  0  0  0
    3.4351   -2.6161   -2.3648 H   0  0  0  0  0  0
    1.7765   -3.7150   -0.8923 H   0  0  0  0  0  0
   -0.0626   -3.4073    0.7513 H   0  0  0  0  0  0
    1.0864   -3.2503    2.0708 H   0  0  0  0  0  0
   -1.9506    0.2643    1.3609 N   0  3  0  0  0  0
   -1.6068    0.5015    2.2988 H   0  0  0  0  0  0
   -2.9731    0.1736    1.3839 H   0  0  0  0  0  0
  1  2  1  0  0  0
  1 18  1  0  0  0
  1 19  1  0  0  0
  1 20  1  0  0  0
  2  3  1  0  0  0
  2 21  1  0  0  0
  2 42  1  0  0  0
  3  4  1  0  0  0
  3 22  1  0  0  0
  3 23  1  0  0  0
  4  5  1  0  0  0
  4  6  1  0  0  0
  4 24  1  0  0  0
  5  6  1  0  0  0
  5 25  1  0  0  0
  5 26  1  0  0  0
  6 27  1  0  0  0
  6 28  1  0  0  0
  7  8  1  0  0  0
  7 29  1  0  0  0
  7 30  1  0  0  0
  7 42  1  0  0  0
  8  9  1  0  0  0
  8 17  1  0  0  0
  8 31  1  0  0  0
  9 10  1  0  0  0
  9 32  1  0  0  0
  9 33  1  0  0  0
 10 11  1  0  0  0
 10 34  1  0  0  0
 10 35  1  0  0  0
 11 12  2  0  0  0
 11 16  1  0  0  0
 12 13  1  0  0  0
 12 36  1  0  0  0
 13 14  2  0  0  0
 13 37  1  0  0  0
 14 15  1  0  0  0
 14 38  1  0  0  0
 15 16  2  0  0  0
 15 39  1  0  0  0
 16 17  1  0  0  0
 17 40  1  0  0  0
 17 41  1  0  0  0
 42 43  1  0  0  0
 42 44  1  0  0  0
M  CHG  1  42   1
M  END
> <energy>
62.6726

> <chiral flag>
0

> <version>
0

> <i_ionizer_Ion_state_n>
1

> <i_ionizer_Tot_Q>
1

> <s_ionizer_Ion_centers>
42

> <s_ionizer_Ion_types>
N5

> <s_ionizer_Ion_ctrs_in>
7

> <r_ionizer_Ionization_penalty>
0.000148807

> <r_ionizer_Ionization_penalty_charging>
0.000148807

> <r_ionizer_Ionization_penalty_neutral>
0

$$$$
ZINC001258454031
                    3D
 Structure written by MMmdl.
 44 46  0  0  1  0            999 V2000
   -2.2568   -2.0834    0.3821 C   0  0  0  0  0  0
   -2.0159   -1.0449   -0.7208 C   0  0  1  0  0  0
   -3.2072   -0.0597   -0.8363 C   0  0  0  0  0  0
   -3.5435    0.6900    0.4235 C   0  0  0  0  0  0
   -4.0715    2.0995    0.3276 C   0  0  0  0  0  0
   -2.7127    1.8460    0.9156 C   0  0  0  0  0  0
   -0.2534    0.4025   -1.6247 C   0  0  0  0  0  0
    1.1807    0.9750   -1.5018 C   0  0  1  0  0  0
    1.3983    1.9005   -0.2976 C   0  0  0  0  0  0
    1.5444    1.1643    1.0321 C   0  0  0  0  0  0
    2.4445   -0.0422    0.9573 C   0  0  0  0  0  0
    2.9353   -0.6004    2.1472 C   0  0  0  0  0  0
    3.7710   -1.7165    2.1247 C   0  0  0  0  0  0
    4.1271   -2.2890    0.9084 C   0  0  0  0  0  0
    3.6320   -1.7560   -0.2807 C   0  0  0  0  0  0
    2.7739   -0.6429   -0.2675 C   0  0  0  0  0  0
    2.2930   -0.0855   -1.5833 C   0  0  0  0  0  0
   -1.4812   -2.8577    0.3642 H   0  0  0  0  0  0
   -2.2572   -1.6352    1.3820 H   0  0  0  0  0  0
   -3.2214   -2.5814    0.2368 H   0  0  0  0  0  0
   -1.9633   -1.6036   -1.6640 H   0  0  0  0  0  0
   -3.0390    0.6364   -1.6675 H   0  0  0  0  0  0
   -4.0975   -0.6356   -1.1210 H   0  0  0  0  0  0
   -3.9970    0.0473    1.1710 H   0  0  0  0  0  0
   -4.1127    2.5783   -0.6450 H   0  0  0  0  0  0
   -4.8713    2.3894    0.9979 H   0  0  0  0  0  0
   -2.5882    1.9527    1.9869 H   0  0  0  0  0  0
   -1.8460    2.1465    0.3432 H   0  0  0  0  0  0
   -0.9248    1.2576   -1.7572 H   0  0  0  0  0  0
   -0.3072   -0.1876   -2.5486 H   0  0  0  0  0  0
    1.2957    1.6010   -2.3994 H   0  0  0  0  0  0
    2.3169    2.4782   -0.4720 H   0  0  0  0  0  0
    0.5897    2.6370   -0.2262 H   0  0  0  0  0  0
    0.5651    0.8545    1.4090 H   0  0  0  0  0  0
    1.9509    1.8708    1.7679 H   0  0  0  0  0  0
    2.6650   -0.1585    3.1037 H   0  0  0  0  0  0
    4.1483   -2.1311    3.0556 H   0  0  0  0  0  0
    4.7896   -3.1501    0.8857 H   0  0  0  0  0  0
    3.9227   -2.2116   -1.2250 H   0  0  0  0  0  0
    1.9714   -0.9069   -2.2366 H   0  0  0  0  0  0
    3.1674    0.3786   -2.0625 H   0  0  0  0  0  0
   -0.6924   -0.4100   -0.4732 N   0  3  0  0  0  0
   -0.7628    0.1949    0.3534 H   0  0  0  0  0  0
    0.0027   -1.1458   -0.3008 H   0  0  0  0  0  0
  1  2  1  0  0  0
  1 18  1  0  0  0
  1 19  1  0  0  0
  1 20  1  0  0  0
  2  3  1  0  0  0
  2 21  1  0  0  0
  2 42  1  0  0  0
  3  4  1  0  0  0
  3 22  1  0  0  0
  3 23  1  0  0  0
  4  5  1  0  0  0
  4  6  1  0  0  0
  4 24  1  0  0  0
  5  6  1  0  0  0
  5 25  1  0  0  0
  5 26  1  0  0  0
  6 27  1  0  0  0
  6 28  1  0  0  0
  7  8  1  0  0  0
  7 29  1  0  0  0
  7 30  1  0  0  0
  7 42  1  0  0  0
  8  9  1  0  0  0
  8 17  1  0  0  0
  8 31  1  0  0  0
  9 10  1  0  0  0
  9 32  1  0  0  0
  9 33  1  0  0  0
 10 11  1  0  0  0
 10 34  1  0  0  0
 10 35  1  0  0  0
 11 12  2  0  0  0
 11 16  1  0  0  0
 12 13  1  0  0  0
 12 36  1  0  0  0
 13 14  2  0  0  0
 13 37  1  0  0  0
 14 15  1  0  0  0
 14 38  1  0  0  0
 15 16  2  0  0  0
 15 39  1  0  0  0
 16 17  1  0  0  0
 17 40  1  0  0  0
 17 41  1  0  0  0
 42 43  1  0  0  0
 42 44  1  0  0  0
M  CHG  1  42   1
M  END
> <energy>
55.6911

> <chiral flag>
0

> <version>
0

> <i_ionizer_Ion_state_n>
1

> <i_ionizer_Tot_Q>
1

> <s_ionizer_Ion_centers>
42

> <s_ionizer_Ion_types>
N5

> <s_ionizer_Ion_ctrs_in>
7

> <r_ionizer_Ionization_penalty>
0.000148807

> <r_ionizer_Ionization_penalty_charging>
0.000148807

> <r_ionizer_Ionization_penalty_neutral>
0

$$$$
ZINC001258454150
                    3D
 Structure written by MMmdl.
 42 43  0  0  1  0            999 V2000
    3.0722   -1.0056    2.0525 C   0  0  0  0  0  0
    2.7677   -1.6980    0.7367 C   0  0  0  0  0  0
    2.1993   -0.7816   -0.3544 C   0  0  0  0  0  0
    0.8180   -0.1588   -0.0243 C   0  0  1  0  0  0
   -0.8461   -1.5461   -1.1937 C   0  0  2  0  0  0
   -1.1595   -1.9371   -2.6433 C   0  0  0  0  0  0
   -2.1373   -1.4633   -0.3414 C   0  0  0  0  0  0
   -3.0047   -0.2644   -0.6349 C   0  0  0  0  0  0
   -4.1089    0.1260    0.3166 C   0  0  0  0  0  0
   -2.8790    0.9805    0.2057 C   0  0  0  0  0  0
    0.9482    1.3126    0.3498 C   0  0  0  0  0  0
    0.6802    1.7375    1.6555 C   0  0  0  0  0  0
    0.7886    3.0862    1.9598 C   0  0  0  0  0  0
    1.1399    4.0344    1.0665 N   0  0  0  0  0  0
    1.3866    3.6122   -0.1900 C   0  0  0  0  0  0
    1.3146    2.2860   -0.5908 C   0  0  0  0  0  0
    3.6827   -0.1114    1.8981 H   0  0  0  0  0  0
    3.6273   -1.6857    2.7069 H   0  0  0  0  0  0
    2.1569   -0.7227    2.5762 H   0  0  0  0  0  0
    2.0792   -2.5348    0.9123 H   0  0  0  0  0  0
    3.6995   -2.1364    0.3560 H   0  0  0  0  0  0
    2.9423   -0.0116   -0.5958 H   0  0  0  0  0  0
    2.1214   -1.4049   -1.2559 H   0  0  0  0  0  0
    0.3726   -0.6771    0.8350 H   0  0  0  0  0  0
   -0.2281   -2.3589   -0.7926 H   0  0  0  0  0  0
   -1.7164   -1.1577   -3.1734 H   0  0  0  0  0  0
   -1.7526   -2.8595   -2.6758 H   0  0  0  0  0  0
   -0.2329   -2.1229   -3.1995 H   0  0  0  0  0  0
   -1.8625   -1.4640    0.7219 H   0  0  0  0  0  0
   -2.7340   -2.3703   -0.5052 H   0  0  0  0  0  0
   -3.2160   -0.1463   -1.6910 H   0  0  0  0  0  0
   -5.0299    0.5193   -0.0989 H   0  0  0  0  0  0
   -4.2418   -0.4503    1.2243 H   0  0  0  0  0  0
   -2.1880    0.9781    1.0384 H   0  0  0  0  0  0
   -2.9460    1.9354   -0.3041 H   0  0  0  0  0  0
    0.3814    1.0393    2.4303 H   0  0  0  0  0  0
    0.5843    3.4527    2.9607 H   0  0  0  0  0  0
    1.6554    4.3932   -0.8951 H   0  0  0  0  0  0
    1.5223    2.0255   -1.6228 H   0  0  0  0  0  0
   -0.0931   -0.2662   -1.1989 N   0  3  0  0  0  0
   -0.7611    0.5131   -1.1745 H   0  0  0  0  0  0
    0.4649   -0.2119   -2.0591 H   0  0  0  0  0  0
  1  2  1  0  0  0
  1 17  1  0  0  0
  1 18  1  0  0  0
  1 19  1  0  0  0
  2  3  1  0  0  0
  2 20  1  0  0  0
  2 21  1  0  0  0
  3  4  1  0  0  0
  3 22  1  0  0  0
  3 23  1  0  0  0
  4 11  1  0  0  0
  4 24  1  0  0  0
  4 40  1  0  0  0
  5  6  1  0  0  0
  5  7  1  0  0  0
  5 25  1  0  0  0
  5 40  1  0  0  0
  6 26  1  0  0  0
  6 27  1  0  0  0
  6 28  1  0  0  0
  7  8  1  0  0  0
  7 29  1  0  0  0
  7 30  1  0  0  0
  8  9  1  0  0  0
  8 10  1  0  0  0
  8 31  1  0  0  0
  9 10  1  0  0  0
  9 32  1  0  0  0
  9 33  1  0  0  0
 10 34  1  0  0  0
 10 35  1  0  0  0
 11 12  2  0  0  0
 11 16  1  0  0  0
 12 13  1  0  0  0
 12 36  1  0  0  0
 13 14  2  0  0  0
 13 37  1  0  0  0
 14 15  1  0  0  0
 15 16  2  0  0  0
 15 38  1  0  0  0
 16 39  1  0  0  0
 40 41  1  0  0  0
 40 42  1  0  0  0
M  CHG  1  40   1
M  END
> <energy>
47.9407

> <chiral flag>
0

> <version>
0

> <i_ionizer_Ion_state_n>
1

> <i_ionizer_Tot_Q>
1

> <s_ionizer_Ion_centers>
40

> <s_ionizer_Ion_types>
N5

> <s_ionizer_Ion_ctrs_in>
5

> <r_ionizer_Ionization_penalty>
0.0075612

> <r_ionizer_Ionization_penalty_charging>
0.000148807

> <r_ionizer_Ionization_penalty_neutral>
0.00741239

$$$$
ZINC001258454151
                    3D
 Structure written by MMmdl.
 42 43  0  0  1  0            999 V2000
   -3.4799   -0.2258    1.3196 C   0  0  0  0  0  0
   -2.8254    0.0400   -0.0367 C   0  0  0  0  0  0
   -1.7426    1.1404    0.0578 C   0  0  0  0  0  0
   -0.2619    0.6338    0.0104 C   0  0  3  0  0  0
    1.0554   -0.5572   -1.8414 C   0  0  2  0  0  0
    0.9324   -0.8801   -3.3273 C   0  0  0  0  0  0
    1.6149   -1.7121   -0.9972 C   0  0  0  0  0  0
    0.6617   -2.6995   -0.3890 C   0  0  0  0  0  0
    1.1348   -3.4562    0.8345 C   0  0  0  0  0  0
    0.0128   -2.4828    0.9414 C   0  0  0  0  0  0
    0.4302    1.8441    0.7616 C   0  0  0  0  0  0
    1.2686    1.4601    1.8215 C   0  0  0  0  0  0
    2.0775    2.4047    2.4038 C   0  0  0  0  0  0
    2.0409    3.7128    2.0790 N   0  0  0  0  0  0
    1.1783    4.0971    1.1103 C   0  0  0  0  0  0
    0.3797    3.2069    0.4068 C   0  0  0  0  0  0
   -2.9655   -1.0211    1.8757 H   0  0  0  0  0  0
   -3.5266    0.6613    1.9683 H   0  0  0  0  0  0
   -4.5195   -0.5565    1.1994 H   0  0  0  0  0  0
   -2.4397   -0.9106   -0.4295 H   0  0  0  0  0  0
   -3.6065    0.3884   -0.7239 H   0  0  0  0  0  0
   -1.9384    1.7103    0.9851 H   0  0  0  0  0  0
   -1.9197    1.8427   -0.7707 H   0  0  0  0  0  0
    0.7078    0.9096   -0.4018 H   0  0  0  0  0  0
    1.8335    0.2238   -1.8197 H   0  0  0  0  0  0
    0.2036   -1.6477   -3.5452 H   0  0  0  0  0  0
    0.6412    0.0073   -3.8906 H   0  0  0  0  0  0
    1.8843   -1.1959   -3.7464 H   0  0  0  0  0  0
    2.2392   -1.2933   -0.1983 H   0  0  0  0  0  0
    2.3234   -2.2841   -1.5916 H   0  0  0  0  0  0
    0.0751   -3.2289   -1.1486 H   0  0  0  0  0  0
    2.0783   -3.2087    1.3486 H   0  0  0  0  0  0
    0.8362   -4.5003    0.9032 H   0  0  0  0  0  0
    0.2082   -1.5873    1.5060 H   0  0  0  0  0  0
   -1.0063   -2.8338    1.1237 H   0  0  0  0  0  0
    1.3451    0.4224    2.1381 H   0  0  0  0  0  0
    2.8472    2.1105    3.1051 H   0  0  0  0  0  0
    1.1738    5.1646    0.8867 H   0  0  0  0  0  0
   -0.1689    3.5311   -0.4672 H   0  0  0  0  0  0
   -0.2723    0.0445   -1.4271 N   0  3  0  0  0  0
   -0.9898   -0.6885   -1.4735 H   0  0  0  0  0  0
   -0.5079    0.7963   -2.0857 H   0  0  0  0  0  0
  1  2  1  0  0  0
  1 17  1  0  0  0
  1 18  1  0  0  0
  1 19  1  0  0  0
  2  3  1  0  0  0
  2 20  1  0  0  0
  2 21  1  0  0  0
  3  4  1  0  0  0
  3 22  1  0  0  0
  3 23  1  0  0  0
  4 11  1  0  0  0
  4 24  1  0  0  0
  4 40  1  0  0  0
  5  6  1  0  0  0
  5  7  1  0  0  0
  5 25  1  0  0  0
  5 40  1  0  0  0
  6 26  1  0  0  0
  6 27  1  0  0  0
  6 28  1  0  0  0
  7  8  1  0  0  0
  7 29  1  0  0  0
  7 30  1  0  0  0
  8  9  1  0  0  0
  8 10  1  0  0  0
  8 31  1  0  0  0
  9 10  1  0  0  0
  9 32  1  0  0  0
  9 33  1  0  0  0
 10 34  1  0  0  0
 10 35  1  0  0  0
 11 12  2  0  0  0
 11 16  1  0  0  0
 12 13  1  0  0  0
 12 36  1  0  0  0
 13 14  2  0  0  0
 13 37  1  0  0  0
 14 15  1  0  0  0
 15 16  2  0  0  0
 15 38  1  0  0  0
 16 39  1  0  0  0
 40 41  1  0  0  0
 40 42  1  0  0  0
M  CHG  1  40   1
M  END
> <energy>
151.51

> <chiral flag>
0

> <version>
0

> <i_ionizer_Ion_state_n>
1

> <i_ionizer_Tot_Q>
1

> <s_ionizer_Ion_centers>
40

> <s_ionizer_Ion_types>
N5

> <s_ionizer_Ion_ctrs_in>
5

> <r_ionizer_Ionization_penalty>
0.0075612

> <r_ionizer_Ionization_penalty_charging>
0.000148807

> <r_ionizer_Ionization_penalty_neutral>
0.00741239

$$$$
ZINC001258454152
                    3D
 Structure written by MMmdl.
 42 43  0  0  1  0            999 V2000
   -0.0069   -0.5692    3.9018 C   0  0  0  0  0  0
    1.3050   -0.5500    3.1263 C   0  0  0  0  0  0
    1.3845   -1.6220    2.0281 C   0  0  0  0  0  0
    0.9231   -1.2332    0.5927 C   0  0  2  0  0  0
   -0.8504   -0.0219   -0.6789 C   0  0  1  0  0  0
   -1.5111   -1.2363   -1.3420 C   0  0  0  0  0  0
   -1.8706    1.1176   -0.4308 C   0  0  0  0  0  0
   -2.3275    1.7726   -1.7031 C   0  0  0  0  0  0
   -3.6352    1.3795   -2.3422 C   0  0  0  0  0  0
   -3.4988    2.7220   -1.6780 C   0  0  0  0  0  0
    2.0612   -0.6391   -0.2299 C   0  0  0  0  0  0
    2.6586    0.5791    0.1053 C   0  0  0  0  0  0
    3.6829    1.0675   -0.6913 C   0  0  0  0  0  0
    4.1371    0.4472   -1.7994 N   0  0  0  0  0  0
    3.5315   -0.7105   -2.1309 C   0  0  0  0  0  0
    2.5112   -1.2901   -1.3894 C   0  0  0  0  0  0
   -0.8587   -0.3000    3.2733 H   0  0  0  0  0  0
    0.0417    0.1571    4.7206 H   0  0  0  0  0  0
   -0.1954   -1.5568    4.3351 H   0  0  0  0  0  0
    2.1095   -0.7407    3.8471 H   0  0  0  0  0  0
    1.4671    0.4582    2.7377 H   0  0  0  0  0  0
    0.8029   -2.4964    2.3465 H   0  0  0  0  0  0
    2.4255   -1.9613    1.9749 H   0  0  0  0  0  0
    0.6480   -2.1869    0.1219 H   0  0  0  0  0  0
   -0.0784    0.3730   -1.3480 H   0  0  0  0  0  0
   -1.9941   -0.9687   -2.2855 H   0  0  0  0  0  0
   -2.2747   -1.6813   -0.6967 H   0  0  0  0  0  0
   -0.7755   -2.0132   -1.5790 H   0  0  0  0  0  0
   -2.7322    0.7395    0.1354 H   0  0  0  0  0  0
   -1.3967    1.8989    0.1833 H   0  0  0  0  0  0
   -1.5000    2.0636   -2.3381 H   0  0  0  0  0  0
   -3.6704    1.3328   -3.4249 H   0  0  0  0  0  0
   -4.2656    0.6523   -1.8466 H   0  0  0  0  0  0
   -3.4463    3.6039   -2.3073 H   0  0  0  0  0  0
   -4.0244    2.8710   -0.7433 H   0  0  0  0  0  0
    2.3328    1.1569    0.9582 H   0  0  0  0  0  0
    4.1687    2.0063   -0.4531 H   0  0  0  0  0  0
    3.8995   -1.1727   -3.0430 H   0  0  0  0  0  0
    2.0790   -2.2276   -1.7265 H   0  0  0  0  0  0
   -0.2900   -0.3642    0.6692 N   0  3  0  0  0  0
   -1.0118   -0.8565    1.2084 H   0  0  0  0  0  0
   -0.0384    0.5074    1.1501 H   0  0  0  0  0  0
  1  2  1  0  0  0
  1 17  1  0  0  0
  1 18  1  0  0  0
  1 19  1  0  0  0
  2  3  1  0  0  0
  2 20  1  0  0  0
  2 21  1  0  0  0
  3  4  1  0  0  0
  3 22  1  0  0  0
  3 23  1  0  0  0
  4 11  1  0  0  0
  4 24  1  0  0  0
  4 40  1  0  0  0
  5  6  1  0  0  0
  5  7  1  0  0  0
  5 25  1  0  0  0
  5 40  1  0  0  0
  6 26  1  0  0  0
  6 27  1  0  0  0
  6 28  1  0  0  0
  7  8  1  0  0  0
  7 29  1  0  0  0
  7 30  1  0  0  0
  8  9  1  0  0  0
  8 10  1  0  0  0
  8 31  1  0  0  0
  9 10  1  0  0  0
  9 32  1  0  0  0
  9 33  1  0  0  0
 10 34  1  0  0  0
 10 35  1  0  0  0
 11 12  2  0  0  0
 11 16  1  0  0  0
 12 13  1  0  0  0
 12 36  1  0  0  0
 13 14  2  0  0  0
 13 37  1  0  0  0
 14 15  1  0  0  0
 15 16  2  0  0  0
 15 38  1  0  0  0
 16 39  1  0  0  0
 40 41  1  0  0  0
 40 42  1  0  0  0
M  CHG  1  40   1
M  END
> <energy>
46.1247

> <chiral flag>
0

> <version>
0

> <i_ionizer_Ion_state_n>
1

> <i_ionizer_Tot_Q>
1

> <s_ionizer_Ion_centers>
40

> <s_ionizer_Ion_types>
N5

> <s_ionizer_Ion_ctrs_in>
5

> <r_ionizer_Ionization_penalty>
0.0075612

> <r_ionizer_Ionization_penalty_charging>
0.000148807

> <r_ionizer_Ionization_penalty_neutral>
0.00741239

$$$$
ZINC001258454153
                    3D
 Structure written by MMmdl.
 42 43  0  0  1  0            999 V2000
    2.9051    0.0086    2.4363 C   0  0  0  0  0  0
    2.8186   -1.1818    1.4935 C   0  0  0  0  0  0
    2.5311   -0.7759    0.0423 C   0  0  0  0  0  0
    1.0982   -0.2566   -0.2307 C   0  0  1  0  0  0
   -1.2801   -0.9193   -0.1466 C   0  0  1  0  0  0
   -2.1120   -2.0973   -0.6703 C   0  0  0  0  0  0
   -1.7571   -0.4989    1.2615 C   0  0  0  0  0  0
   -2.9870    0.3659    1.2059 C   0  0  0  0  0  0
   -2.8514    1.8547    1.0232 C   0  0  0  0  0  0
   -3.2960    1.2982    2.3464 C   0  0  0  0  0  0
    1.0731    0.4162   -1.5960 C   0  0  0  0  0  0
    1.1531   -0.3229   -2.7837 C   0  0  0  0  0  0
    1.1325    0.3512   -3.9945 C   0  0  0  0  0  0
    1.0400    1.6940   -4.1065 N   0  0  0  0  0  0
    0.9621    2.3912   -2.9539 C   0  0  0  0  0  0
    0.9746    1.8090   -1.6945 C   0  0  0  0  0  0
    3.6208    0.7520    2.0664 H   0  0  0  0  0  0
    3.2428   -0.3213    3.4250 H   0  0  0  0  0  0
    1.9340    0.4968    2.5634 H   0  0  0  0  0  0
    3.7817   -1.7060    1.5166 H   0  0  0  0  0  0
    2.0718   -1.8910    1.8637 H   0  0  0  0  0  0
    3.2644   -0.0127   -0.2527 H   0  0  0  0  0  0
    2.7379   -1.6415   -0.6012 H   0  0  0  0  0  0
    0.8588    0.4941    0.5295 H   0  0  0  0  0  0
   -1.4202   -0.0892   -0.8502 H   0  0  0  0  0  0
   -3.1685   -1.8245   -0.7619 H   0  0  0  0  0  0
   -1.7675   -2.4113   -1.6628 H   0  0  0  0  0  0
   -2.0464   -2.9639   -0.0037 H   0  0  0  0  0  0
   -0.9636    0.0518    1.7798 H   0  0  0  0  0  0
   -1.9662   -1.3819    1.8766 H   0  0  0  0  0  0
   -3.8286   -0.1281    0.7307 H   0  0  0  0  0  0
   -1.8564    2.2823    0.9607 H   0  0  0  0  0  0
   -3.5857    2.3563    0.4018 H   0  0  0  0  0  0
   -4.3363    1.4170    2.6324 H   0  0  0  0  0  0
   -2.5997    1.3453    3.1770 H   0  0  0  0  0  0
    1.2190   -1.4064   -2.7631 H   0  0  0  0  0  0
    1.1899   -0.1894   -4.9363 H   0  0  0  0  0  0
    0.8834    3.4686   -3.0736 H   0  0  0  0  0  0
    0.9067    2.4365   -0.8134 H   0  0  0  0  0  0
    0.1347   -1.3911   -0.1376 N   0  3  0  0  0  0
    0.2810   -2.0177   -0.9377 H   0  0  0  0  0  0
    0.3084   -1.9038    0.7349 H   0  0  0  0  0  0
  1  2  1  0  0  0
  1 17  1  0  0  0
  1 18  1  0  0  0
  1 19  1  0  0  0
  2  3  1  0  0  0
  2 20  1  0  0  0
  2 21  1  0  0  0
  3  4  1  0  0  0
  3 22  1  0  0  0
  3 23  1  0  0  0
  4 11  1  0  0  0
  4 24  1  0  0  0
  4 40  1  0  0  0
  5  6  1  0  0  0
  5  7  1  0  0  0
  5 25  1  0  0  0
  5 40  1  0  0  0
  6 26  1  0  0  0
  6 27  1  0  0  0
  6 28  1  0  0  0
  7  8  1  0  0  0
  7 29  1  0  0  0
  7 30  1  0  0  0
  8  9  1  0  0  0
  8 10  1  0  0  0
  8 31  1  0  0  0
  9 10  1  0  0  0
  9 32  1  0  0  0
  9 33  1  0  0  0
 10 34  1  0  0  0
 10 35  1  0  0  0
 11 12  2  0  0  0
 11 16  1  0  0  0
 12 13  1  0  0  0
 12 36  1  0  0  0
 13 14  2  0  0  0
 13 37  1  0  0  0
 14 15  1  0  0  0
 15 16  2  0  0  0
 15 38  1  0  0  0
 16 39  1  0  0  0
 40 41  1  0  0  0
 40 42  1  0  0  0
M  CHG  1  40   1
M  END
> <energy>
41.0817

> <chiral flag>
0

> <version>
0

> <i_ionizer_Ion_state_n>
1

> <i_ionizer_Tot_Q>
1

> <s_ionizer_Ion_centers>
40

> <s_ionizer_Ion_types>
N5

> <s_ionizer_Ion_ctrs_in>
5

> <r_ionizer_Ionization_penalty>
0.0075612

> <r_ionizer_Ionization_penalty_charging>
0.000148807

> <r_ionizer_Ionization_penalty_neutral>
0.00741239

$$$$
ZINC001258454337
                    3D
 Structure written by MMmdl.
 41 43  0  0  1  0            999 V2000
    0.1017    1.4794    2.5203 C   0  0  0  0  0  0
    0.3024    1.4938    0.9989 C   0  0  2  0  0  0
   -0.8530    2.1760    0.2413 C   0  0  0  0  0  0
   -2.1105    1.3646    0.1071 C   0  0  0  0  0  0
   -3.2093    1.8825   -0.7882 C   0  0  0  0  0  0
   -2.4313    0.6633   -1.1892 C   0  0  0  0  0  0
    0.7808    0.2509    0.3805 N   0  0  0  0  0  0
    0.5099   -1.0691    0.7195 C   0  0  0  0  0  0
   -0.5551   -1.5620    1.6621 C   0  0  0  0  0  0
   -1.6323   -2.4395    0.9956 C   0  0  0  0  0  0
    1.4512   -1.8476    0.0652 C   0  0  0  0  0  0
    2.1911   -1.0324   -0.8187 C   0  0  0  0  0  0
    3.2086   -1.2927   -1.7579 C   0  0  0  0  0  0
    3.7305   -0.2429   -2.5184 C   0  0  0  0  0  0
    3.2549    1.0520   -2.3471 C   0  0  0  0  0  0
    2.2610    1.3345   -1.4048 C   0  0  0  0  0  0
    1.7366    0.2725   -0.6422 C   0  0  0  0  0  0
   -0.8942    1.1443    2.8166 H   0  0  0  0  0  0
    0.8511    0.8552    3.0184 H   0  0  0  0  0  0
    0.2033    2.4979    2.9153 H   0  0  0  0  0  0
    1.1579    2.1778    0.8911 H   0  0  0  0  0  0
   -0.5043    2.4667   -0.7579 H   0  0  0  0  0  0
   -1.1043    3.1134    0.7554 H   0  0  0  0  0  0
   -2.4288    0.9113    1.0372 H   0  0  0  0  0  0
   -4.2360    1.7440   -0.4673 H   0  0  0  0  0  0
   -3.0427    2.7945   -1.3505 H   0  0  0  0  0  0
   -1.7306    0.7491   -2.0129 H   0  0  0  0  0  0
   -2.9473   -0.2885   -1.1532 H   0  0  0  0  0  0
   -0.0797   -2.1112    2.4845 H   0  0  0  0  0  0
   -1.0878   -0.7332    2.1204 H   0  0  0  0  0  0
   -2.4837   -2.5164    1.6809 H   0  0  0  0  0  0
   -1.9964   -1.9701    0.0777 H   0  0  0  0  0  0
   -1.9715   -4.3072    0.2575 H   0  0  0  0  0  0
    1.5660   -2.9171    0.1831 H   0  0  0  0  0  0
    3.5783   -2.3037   -1.8970 H   0  0  0  0  0  0
    4.5083   -0.4438   -3.2502 H   0  0  0  0  0  0
    3.6652    1.8593   -2.9501 H   0  0  0  0  0  0
    1.9113    2.3539   -1.2816 H   0  0  0  0  0  0
   -1.1978   -3.8003    0.6890 N   0  3  0  0  0  0
   -0.4020   -3.7689    0.0409 H   0  0  0  0  0  0
   -0.9154   -4.2740    1.5550 H   0  0  0  0  0  0
  1  2  1  0  0  0
  1 18  1  0  0  0
  1 19  1  0  0  0
  1 20  1  0  0  0
  2  3  1  0  0  0
  2  7  1  0  0  0
  2 21  1  0  0  0
  3  4  1  0  0  0
  3 22  1  0  0  0
  3 23  1  0  0  0
  4  5  1  0  0  0
  4  6  1  0  0  0
  4 24  1  0  0  0
  5  6  1  0  0  0
  5 25  1  0  0  0
  5 26  1  0  0  0
  6 27  1  0  0  0
  6 28  1  0  0  0
  7  8  1  0  0  0
  7 17  1  0  0  0
  8  9  1  0  0  0
  8 11  2  0  0  0
  9 10  1  0  0  0
  9 29  1  0  0  0
  9 30  1  0  0  0
 10 31  1  0  0  0
 10 32  1  0  0  0
 10 39  1  0  0  0
 11 12  1  0  0  0
 11 34  1  0  0  0
 12 13  1  0  0  0
 12 17  2  0  0  0
 13 14  2  0  0  0
 13 35  1  0  0  0
 14 15  1  0  0  0
 14 36  1  0  0  0
 15 16  2  0  0  0
 15 37  1  0  0  0
 16 17  1  0  0  0
 16 38  1  0  0  0
 33 39  1  0  0  0
 39 40  1  0  0  0
 39 41  1  0  0  0
M  CHG  1  39   1
M  END
> <energy>
68.5483

> <chiral flag>
0

> <version>
0

> <i_ionizer_Ion_state_n>
1

> <i_ionizer_Tot_Q>
1

> <s_ionizer_Ion_centers>
39

> <s_ionizer_Ion_types>
N5

> <s_ionizer_Ion_ctrs_in>
11

> <r_ionizer_Ionization_penalty>
0.000470441

> <r_ionizer_Ionization_penalty_charging>
0.000470441

> <r_ionizer_Ionization_penalty_neutral>
0

$$$$
ZINC001258454338
                    3D
 Structure written by MMmdl.
 41 43  0  0  1  0            999 V2000
   -2.1037    0.6574   -1.2185 C   0  0  0  0  0  0
   -1.0398    0.8374   -0.1307 C   0  0  1  0  0  0
   -1.5824    0.6477    1.3030 C   0  0  0  0  0  0
   -0.6889    1.2956    2.3299 C   0  0  0  0  0  0
   -1.2395    1.6742    3.6782 C   0  0  0  0  0  0
   -0.8851    2.7466    2.6836 C   0  0  0  0  0  0
    0.1684    0.0435   -0.3985 N   0  0  0  0  0  0
    0.2607   -1.3370   -0.5118 C   0  0  0  0  0  0
   -0.8681   -2.3162   -0.3348 C   0  0  0  0  0  0
   -1.3663   -2.9412   -1.6476 C   0  0  0  0  0  0
    1.5842   -1.6309   -0.7862 C   0  0  0  0  0  0
    2.3250   -0.4268   -0.8225 C   0  0  0  0  0  0
    3.6864   -0.1258   -1.0400 C   0  0  0  0  0  0
    4.1129    1.2058   -1.0424 C   0  0  0  0  0  0
    3.2061    2.2370   -0.8246 C   0  0  0  0  0  0
    1.8554    1.9600   -0.5885 C   0  0  0  0  0  0
    1.4268    0.6178   -0.5922 C   0  0  0  0  0  0
   -2.5911   -0.3195   -1.1776 H   0  0  0  0  0  0
   -2.8915    1.4129   -1.1176 H   0  0  0  0  0  0
   -1.6595    0.7682   -2.2172 H   0  0  0  0  0  0
   -0.7427    1.8898   -0.2116 H   0  0  0  0  0  0
   -2.5889    1.0794    1.3683 H   0  0  0  0  0  0
   -1.6770   -0.4062    1.5741 H   0  0  0  0  0  0
    0.3206    0.8935    2.3129 H   0  0  0  0  0  0
   -0.5957    1.5456    4.5424 H   0  0  0  0  0  0
   -2.2862    1.4844    3.8791 H   0  0  0  0  0  0
   -1.7025    3.2945    2.2264 H   0  0  0  0  0  0
    0.0051    3.3398    2.8609 H   0  0  0  0  0  0
   -0.5490   -3.1037    0.3606 H   0  0  0  0  0  0
   -1.7277   -1.8507    0.1445 H   0  0  0  0  0  0
   -1.2295   -2.2574   -2.4910 H   0  0  0  0  0  0
   -2.4429   -3.1325   -1.5589 H   0  0  0  0  0  0
   -1.0970   -4.6085   -2.7960 H   0  0  0  0  0  0
    1.9775   -2.6271   -0.9415 H   0  0  0  0  0  0
    4.4000   -0.9248   -1.2141 H   0  0  0  0  0  0
    5.1627    1.4369   -1.2157 H   0  0  0  0  0  0
    3.5493    3.2683   -0.8420 H   0  0  0  0  0  0
    1.1703    2.7823   -0.4121 H   0  0  0  0  0  0
   -0.7170   -4.2190   -1.9305 N   0  3  0  0  0  0
    0.2940   -4.0737   -2.0350 H   0  0  0  0  0  0
   -0.8909   -4.8705   -1.1562 H   0  0  0  0  0  0
  1  2  1  0  0  0
  1 18  1  0  0  0
  1 19  1  0  0  0
  1 20  1  0  0  0
  2  3  1  0  0  0
  2  7  1  0  0  0
  2 21  1  0  0  0
  3  4  1  0  0  0
  3 22  1  0  0  0
  3 23  1  0  0  0
  4  5  1  0  0  0
  4  6  1  0  0  0
  4 24  1  0  0  0
  5  6  1  0  0  0
  5 25  1  0  0  0
  5 26  1  0  0  0
  6 27  1  0  0  0
  6 28  1  0  0  0
  7  8  1  0  0  0
  7 17  1  0  0  0
  8  9  1  0  0  0
  8 11  2  0  0  0
  9 10  1  0  0  0
  9 29  1  0  0  0
  9 30  1  0  0  0
 10 31  1  0  0  0
 10 32  1  0  0  0
 10 39  1  0  0  0
 11 12  1  0  0  0
 11 34  1  0  0  0
 12 13  1  0  0  0
 12 17  2  0  0  0
 13 14  2  0  0  0
 13 35  1  0  0  0
 14 15  1  0  0  0
 14 36  1  0  0  0
 15 16  2  0  0  0
 15 37  1  0  0  0
 16 17  1  0  0  0
 16 38  1  0  0  0
 33 39  1  0  0  0
 39 40  1  0  0  0
 39 41  1  0  0  0
M  CHG  1  39   1
M  END
> <energy>
66.4827

> <chiral flag>
0

> <version>
0

> <i_ionizer_Ion_state_n>
1

> <i_ionizer_Tot_Q>
1

> <s_ionizer_Ion_centers>
39

> <s_ionizer_Ion_types>
N5

> <s_ionizer_Ion_ctrs_in>
11

> <r_ionizer_Ionization_penalty>
0.000470441

> <r_ionizer_Ionization_penalty_charging>
0.000470441

> <r_ionizer_Ionization_penalty_neutral>
0

$$$$
ZINC001258454385
                    3D
 Structure written by MMmdl.
 40 41  0  0  1  0            999 V2000
    2.8131   -2.5650   -0.4821 C   0  0  0  0  0  0
    1.4250   -2.1637    0.0099 C   0  0  0  0  0  0
    0.7766   -1.0519   -0.8354 C   0  0  2  0  0  0
   -1.1820   -0.9085    0.7710 C   0  0  1  0  0  0
   -0.5706    0.1283    1.7194 C   0  0  0  0  0  0
   -2.7314   -0.7709    0.7487 C   0  0  0  0  0  0
   -3.2278    0.5376    0.1903 C   0  0  0  0  0  0
   -3.5360    0.6789   -1.2770 C   0  0  0  0  0  0
   -4.6559    0.6728   -0.2751 C   0  0  0  0  0  0
    1.4894    0.2724   -0.8134 C   0  0  0  0  0  0
    1.5687    1.2939   -1.7393 C   0  0  0  0  0  0
    2.3430    2.3185   -1.1512 C   0  0  0  0  0  0
    2.6968    1.8649    0.0998 C   0  0  0  0  0  0
    3.4781    2.4526    1.2037 C   0  0  0  0  0  0
    2.2018    0.6112    0.3038 O   0  0  0  0  0  0
    2.7896   -2.8446   -1.5389 H   0  0  0  0  0  0
    3.1751   -3.4301    0.0843 H   0  0  0  0  0  0
    3.5399   -1.7567   -0.3538 H   0  0  0  0  0  0
    1.5040   -1.8811    1.0653 H   0  0  0  0  0  0
    0.7936   -3.0606   -0.0341 H   0  0  0  0  0  0
    0.8502   -1.3900   -1.8786 H   0  0  0  0  0  0
   -0.9817   -1.9022    1.1899 H   0  0  0  0  0  0
   -0.5562    1.1328    1.2813 H   0  0  0  0  0  0
   -1.1435    0.1820    2.6532 H   0  0  0  0  0  0
    0.4542   -0.1352    1.9975 H   0  0  0  0  0  0
   -3.1541   -1.6073    0.1778 H   0  0  0  0  0  0
   -3.1126   -0.8791    1.7725 H   0  0  0  0  0  0
   -2.8046    1.3939    0.6999 H   0  0  0  0  0  0
   -3.2692    1.6169   -1.7514 H   0  0  0  0  0  0
   -3.4253   -0.1882   -1.9168 H   0  0  0  0  0  0
   -5.1677    1.6120   -0.0926 H   0  0  0  0  0  0
   -5.3018   -0.1961   -0.2482 H   0  0  0  0  0  0
    1.1012    1.2983   -2.7145 H   0  0  0  0  0  0
    2.6034    3.2749   -1.5814 H   0  0  0  0  0  0
    3.5153    3.5428    1.1208 H   0  0  0  0  0  0
    3.0356    2.2053    2.1733 H   0  0  0  0  0  0
    4.5030    2.0735    1.1834 H   0  0  0  0  0  0
   -0.7107   -0.8557   -0.6599 N   0  3  0  0  0  0
   -0.9614    0.0617   -1.0468 H   0  0  0  0  0  0
   -1.1959   -1.5927   -1.1850 H   0  0  0  0  0  0
  1  2  1  0  0  0
  1 16  1  0  0  0
  1 17  1  0  0  0
  1 18  1  0  0  0
  2  3  1  0  0  0
  2 19  1  0  0  0
  2 20  1  0  0  0
  3 10  1  0  0  0
  3 21  1  0  0  0
  3 38  1  0  0  0
  4  5  1  0  0  0
  4  6  1  0  0  0
  4 22  1  0  0  0
  4 38  1  0  0  0
  5 23  1  0  0  0
  5 24  1  0  0  0
  5 25  1  0  0  0
  6  7  1  0  0  0
  6 26  1  0  0  0
  6 27  1  0  0  0
  7  8  1  0  0  0
  7  9  1  0  0  0
  7 28  1  0  0  0
  8  9  1  0  0  0
  8 29  1  0  0  0
  8 30  1  0  0  0
  9 31  1  0  0  0
  9 32  1  0  0  0
 10 11  2  0  0  0
 10 15  1  0  0  0
 11 12  1  0  0  0
 11 33  1  0  0  0
 12 13  2  0  0  0
 12 34  1  0  0  0
 13 14  1  0  0  0
 13 15  1  0  0  0
 14 35  1  0  0  0
 14 36  1  0  0  0
 14 37  1  0  0  0
 38 39  1  0  0  0
 38 40  1  0  0  0
M  CHG  1  38   1
M  END
> <energy>
40.6803

> <chiral flag>
0

> <version>
0

> <i_ionizer_Ion_state_n>
1

> <i_ionizer_Tot_Q>
1

> <s_ionizer_Ion_centers>
38

> <s_ionizer_Ion_types>
N5

> <s_ionizer_Ion_ctrs_in>
4

> <r_ionizer_Ionization_penalty>
0.000148807

> <r_ionizer_Ionization_penalty_charging>
0.000148807

> <r_ionizer_Ionization_penalty_neutral>
0

$$$$
ZINC001258454386
                    3D
 Structure written by MMmdl.
 40 41  0  0  1  0            999 V2000
    1.1844   -1.3805   -2.4266 C   0  0  0  0  0  0
    1.1532    0.1367   -2.5732 C   0  0  0  0  0  0
    0.9674    1.0126   -1.3104 C   0  0  2  0  0  0
   -1.4261    0.3841   -0.8027 C   0  0  2  0  0  0
   -2.7001    0.9169   -1.4725 C   0  0  0  0  0  0
   -1.6993    0.0797    0.6880 C   0  0  0  0  0  0
   -2.2406   -1.3108    0.8841 C   0  0  0  0  0  0
   -2.8698   -1.6795    2.2024 C   0  0  0  0  0  0
   -3.7202   -1.5837    0.9662 C   0  0  0  0  0  0
    1.7504    0.5830   -0.1056 C   0  0  0  0  0  0
    1.8431   -0.5720    0.6459 C   0  0  0  0  0  0
    2.7622   -0.3132    1.6905 C   0  0  0  0  0  0
    3.1873    0.9839    1.5160 C   0  0  0  0  0  0
    4.1328    1.8484    2.2490 C   0  0  0  0  0  0
    2.5706    1.5364    0.4368 O   0  0  0  0  0  0
    2.1113   -1.7084   -1.9469 H   0  0  0  0  0  0
    0.3439   -1.7825   -1.8610 H   0  0  0  0  0  0
    1.1608   -1.8462   -3.4180 H   0  0  0  0  0  0
    0.3769    0.4012   -3.3043 H   0  0  0  0  0  0
    2.1035    0.4237   -3.0482 H   0  0  0  0  0  0
    1.4180    1.9703   -1.6121 H   0  0  0  0  0  0
   -1.1652   -0.5325   -1.3323 H   0  0  0  0  0  0
   -3.0496    1.8409   -0.9961 H   0  0  0  0  0  0
   -3.5102    0.1822   -1.4196 H   0  0  0  0  0  0
   -2.5223    1.1313   -2.5331 H   0  0  0  0  0  0
   -2.3777    0.8297    1.1145 H   0  0  0  0  0  0
   -0.7728    0.1418    1.2665 H   0  0  0  0  0  0
   -1.6100   -2.0635    0.4224 H   0  0  0  0  0  0
   -2.6537   -2.6632    2.6052 H   0  0  0  0  0  0
   -2.9846   -0.9086    2.9560 H   0  0  0  0  0  0
   -4.4141   -0.7552    0.8923 H   0  0  0  0  0  0
   -4.0876   -2.5066    0.5312 H   0  0  0  0  0  0
    1.3074   -1.4947    0.4708 H   0  0  0  0  0  0
    3.0814   -0.9886    2.4735 H   0  0  0  0  0  0
    3.6037    2.4416    3.0026 H   0  0  0  0  0  0
    4.8941    1.2476    2.7565 H   0  0  0  0  0  0
    4.6449    2.5323    1.5652 H   0  0  0  0  0  0
   -0.4272    1.4831   -0.9818 N   0  3  0  0  0  0
   -0.3863    2.0243   -0.1103 H   0  0  0  0  0  0
   -0.7501    2.0883   -1.7458 H   0  0  0  0  0  0
  1  2  1  0  0  0
  1 16  1  0  0  0
  1 17  1  0  0  0
  1 18  1  0  0  0
  2  3  1  0  0  0
  2 19  1  0  0  0
  2 20  1  0  0  0
  3 10  1  0  0  0
  3 21  1  0  0  0
  3 38  1  0  0  0
  4  5  1  0  0  0
  4  6  1  0  0  0
  4 22  1  0  0  0
  4 38  1  0  0  0
  5 23  1  0  0  0
  5 24  1  0  0  0
  5 25  1  0  0  0
  6  7  1  0  0  0
  6 26  1  0  0  0
  6 27  1  0  0  0
  7  8  1  0  0  0
  7  9  1  0  0  0
  7 28  1  0  0  0
  8  9  1  0  0  0
  8 29  1  0  0  0
  8 30  1  0  0  0
  9 31  1  0  0  0
  9 32  1  0  0  0
 10 11  2  0  0  0
 10 15  1  0  0  0
 11 12  1  0  0  0
 11 33  1  0  0  0
 12 13  2  0  0  0
 12 34  1  0  0  0
 13 14  1  0  0  0
 13 15  1  0  0  0
 14 35  1  0  0  0
 14 36  1  0  0  0
 14 37  1  0  0  0
 38 39  1  0  0  0
 38 40  1  0  0  0
M  CHG  1  38   1
M  END
> <energy>
43.5211

> <chiral flag>
0

> <version>
0

> <i_ionizer_Ion_state_n>
1

> <i_ionizer_Tot_Q>
1

> <s_ionizer_Ion_centers>
38

> <s_ionizer_Ion_types>
N5

> <s_ionizer_Ion_ctrs_in>
4

> <r_ionizer_Ionization_penalty>
0.000148807

> <r_ionizer_Ionization_penalty_charging>
0.000148807

> <r_ionizer_Ionization_penalty_neutral>
0

$$$$
ZINC001258454427
                    3D
 Structure written by MMmdl.
 44 45  0  0  1  0            999 V2000
    3.0835    2.5140    1.8302 C   0  0  0  0  0  0
    3.9956    1.6578    1.1430 O   0  0  0  0  0  0
    3.3651    0.8879    0.2028 C   0  0  0  0  0  0
    3.8331    0.9916   -1.1026 C   0  0  0  0  0  0
    3.2420    0.2293   -2.1053 C   0  0  0  0  0  0
    2.1960   -0.6441   -1.7973 C   0  0  0  0  0  0
    1.7145   -0.7835   -0.4829 C   0  0  0  0  0  0
    0.5922   -1.7732   -0.1193 C   0  0  0  0  0  0
   -0.1401   -2.3815   -1.3336 C   0  0  0  0  0  0
    1.2567   -2.9585    0.6273 C   0  0  0  0  0  0
   -1.0958    0.0258    0.4395 C   0  0  2  0  0  0
   -1.2358    0.8367    1.7339 C   0  0  0  0  0  0
   -2.4906   -0.2250   -0.1850 C   0  0  0  0  0  0
   -3.1455    1.0618   -0.6226 C   0  0  0  0  0  0
   -4.5376    1.0423   -1.1990 C   0  0  0  0  0  0
   -4.2990    1.6418    0.1582 C   0  0  0  0  0  0
    2.3355   -0.0035    0.5189 C   0  0  0  0  0  0
    3.6614    3.3442    2.2489 H   0  0  0  0  0  0
    2.6035    1.9805    2.6561 H   0  0  0  0  0  0
    2.3293    2.9406    1.1574 H   0  0  0  0  0  0
    4.6459    1.6711   -1.3355 H   0  0  0  0  0  0
    3.5921    0.3132   -3.1312 H   0  0  0  0  0  0
    1.7777   -1.2261   -2.6141 H   0  0  0  0  0  0
   -0.9547   -3.0446   -1.0175 H   0  0  0  0  0  0
    0.5352   -2.9944   -1.9430 H   0  0  0  0  0  0
   -0.5638   -1.6154   -1.9892 H   0  0  0  0  0  0
    1.7251   -2.6419    1.5665 H   0  0  0  0  0  0
    0.5231   -3.7366    0.8705 H   0  0  0  0  0  0
    2.0395   -3.4207    0.0126 H   0  0  0  0  0  0
   -0.4966    0.6194   -0.2607 H   0  0  0  0  0  0
   -1.9234    0.3531    2.4379 H   0  0  0  0  0  0
   -0.2707    0.9582    2.2389 H   0  0  0  0  0  0
   -1.6129    1.8451    1.5346 H   0  0  0  0  0  0
   -3.1335   -0.7686    0.5215 H   0  0  0  0  0  0
   -2.4019   -0.8591   -1.0726 H   0  0  0  0  0  0
   -2.4421    1.7453   -1.0905 H   0  0  0  0  0  0
   -4.7488    1.7189   -2.0200 H   0  0  0  0  0  0
   -5.0765    0.1044   -1.2457 H   0  0  0  0  0  0
   -4.3588    2.7207    0.2546 H   0  0  0  0  0  0
   -4.6816    1.1052    1.0202 H   0  0  0  0  0  0
    2.0162   -0.1068    1.5527 H   0  0  0  0  0  0
   -0.4054   -1.2334    0.8810 N   0  3  0  0  0  0
   -1.1198   -1.9525    1.0444 H   0  0  0  0  0  0
    0.0908   -1.0384    1.7585 H   0  0  0  0  0  0
  1  2  1  0  0  0
  1 18  1  0  0  0
  1 19  1  0  0  0
  1 20  1  0  0  0
  2  3  1  0  0  0
  3  4  2  0  0  0
  3 17  1  0  0  0
  4  5  1  0  0  0
  4 21  1  0  0  0
  5  6  2  0  0  0
  5 22  1  0  0  0
  6  7  1  0  0  0
  6 23  1  0  0  0
  7  8  1  0  0  0
  7 17  2  0  0  0
  8  9  1  0  0  0
  8 10  1  0  0  0
  8 42  1  0  0  0
  9 24  1  0  0  0
  9 25  1  0  0  0
  9 26  1  0  0  0
 10 27  1  0  0  0
 10 28  1  0  0  0
 10 29  1  0  0  0
 11 12  1  0  0  0
 11 13  1  0  0  0
 11 30  1  0  0  0
 11 42  1  0  0  0
 12 31  1  0  0  0
 12 32  1  0  0  0
 12 33  1  0  0  0
 13 14  1  0  0  0
 13 34  1  0  0  0
 13 35  1  0  0  0
 14 15  1  0  0  0
 14 16  1  0  0  0
 14 36  1  0  0  0
 15 16  1  0  0  0
 15 37  1  0  0  0
 15 38  1  0  0  0
 16 39  1  0  0  0
 16 40  1  0  0  0
 17 41  1  0  0  0
 42 43  1  0  0  0
 42 44  1  0  0  0
M  CHG  1  42   1
M  END
> <energy>
59.5301

> <chiral flag>
0

> <version>
0

> <i_ionizer_Ion_state_n>
1

> <i_ionizer_Tot_Q>
1

> <s_ionizer_Ion_centers>
42

> <s_ionizer_Ion_types>
N5

> <s_ionizer_Ion_ctrs_in>
11

> <r_ionizer_Ionization_penalty>
0.000148807

> <r_ionizer_Ionization_penalty_charging>
0.000148807

> <r_ionizer_Ionization_penalty_neutral>
0

$$$$
ZINC001258454428
                    3D
 Structure written by MMmdl.
 44 45  0  0  1  0            999 V2000
    2.6424    2.2452   -2.2582 C   0  0  0  0  0  0
    3.5180    1.1949   -1.8482 O   0  0  0  0  0  0
    2.9412    0.4039   -0.8913 C   0  0  0  0  0  0
    3.5901    0.3145    0.3342 C   0  0  0  0  0  0
    3.0454   -0.4740    1.3421 C   0  0  0  0  0  0
    1.8625   -1.1867    1.1177 C   0  0  0  0  0  0
    1.2009   -1.1354   -0.1227 C   0  0  0  0  0  0
   -0.0906   -1.9200   -0.4085 C   0  0  0  0  0  0
    0.2364   -2.9698   -1.5055 C   0  0  0  0  0  0
   -0.6228   -2.7366    0.7916 C   0  0  0  0  0  0
   -1.4338    0.2492   -0.4755 C   0  0  1  0  0  0
   -2.1539    0.9840   -1.6182 C   0  0  0  0  0  0
   -2.2824    0.2975    0.8102 C   0  0  0  0  0  0
   -2.3238    1.6821    1.4055 C   0  0  0  0  0  0
   -2.3688    1.8716    2.8992 C   0  0  0  0  0  0
   -1.1193    2.2169    2.1379 C   0  0  0  0  0  0
    1.7788   -0.3332   -1.1309 C   0  0  0  0  0  0
    2.2151    2.7726   -1.3971 H   0  0  0  0  0  0
    1.8487    1.8673   -2.9104 H   0  0  0  0  0  0
    3.2337    2.9657   -2.8318 H   0  0  0  0  0  0
    4.5099    0.8677    0.5038 H   0  0  0  0  0  0
    3.5406   -0.5374    2.3081 H   0  0  0  0  0  0
    1.4826   -1.7908    1.9363 H   0  0  0  0  0  0
   -0.6273   -3.6135   -1.7151 H   0  0  0  0  0  0
    1.0647   -3.6190   -1.1956 H   0  0  0  0  0  0
    0.5279   -2.5034   -2.4542 H   0  0  0  0  0  0
    0.0940   -3.5132    1.0881 H   0  0  0  0  0  0
   -0.8095   -2.1247    1.6762 H   0  0  0  0  0  0
   -1.5593   -3.2517    0.5445 H   0  0  0  0  0  0
   -0.5018    0.7941   -0.3077 H   0  0  0  0  0  0
   -3.1418    0.5540   -1.8142 H   0  0  0  0  0  0
   -2.2886    2.0462   -1.3902 H   0  0  0  0  0  0
   -1.5733    0.9320   -2.5471 H   0  0  0  0  0  0
   -1.8744   -0.3832    1.5608 H   0  0  0  0  0  0
   -3.3064   -0.0411    0.6097 H   0  0  0  0  0  0
   -2.9055    2.3751    0.8073 H   0  0  0  0  0  0
   -2.9664    2.6891    3.2867 H   0  0  0  0  0  0
   -2.3473    0.9951    3.5374 H   0  0  0  0  0  0
   -0.8724    3.2643    2.0048 H   0  0  0  0  0  0
   -0.2543    1.5716    2.2555 H   0  0  0  0  0  0
    1.3054   -0.2821   -2.1090 H   0  0  0  0  0  0
   -1.2185   -1.1281   -1.0470 N   0  3  0  0  0  0
   -1.0110   -1.0284   -2.0477 H   0  0  0  0  0  0
   -2.0882   -1.6609   -0.9293 H   0  0  0  0  0  0
  1  2  1  0  0  0
  1 18  1  0  0  0
  1 19  1  0  0  0
  1 20  1  0  0  0
  2  3  1  0  0  0
  3  4  2  0  0  0
  3 17  1  0  0  0
  4  5  1  0  0  0
  4 21  1  0  0  0
  5  6  2  0  0  0
  5 22  1  0  0  0
  6  7  1  0  0  0
  6 23  1  0  0  0
  7  8  1  0  0  0
  7 17  2  0  0  0
  8  9  1  0  0  0
  8 10  1  0  0  0
  8 42  1  0  0  0
  9 24  1  0  0  0
  9 25  1  0  0  0
  9 26  1  0  0  0
 10 27  1  0  0  0
 10 28  1  0  0  0
 10 29  1  0  0  0
 11 12  1  0  0  0
 11 13  1  0  0  0
 11 30  1  0  0  0
 11 42  1  0  0  0
 12 31  1  0  0  0
 12 32  1  0  0  0
 12 33  1  0  0  0
 13 14  1  0  0  0
 13 34  1  0  0  0
 13 35  1  0  0  0
 14 15  1  0  0  0
 14 16  1  0  0  0
 14 36  1  0  0  0
 15 16  1  0  0  0
 15 37  1  0  0  0
 15 38  1  0  0  0
 16 39  1  0  0  0
 16 40  1  0  0  0
 17 41  1  0  0  0
 42 43  1  0  0  0
 42 44  1  0  0  0
M  CHG  1  42   1
M  END
> <energy>
61.692

> <chiral flag>
0

> <version>
0

> <i_ionizer_Ion_state_n>
1

> <i_ionizer_Tot_Q>
1

> <s_ionizer_Ion_centers>
42

> <s_ionizer_Ion_types>
N5

> <s_ionizer_Ion_ctrs_in>
11

> <r_ionizer_Ionization_penalty>
0.000148807

> <r_ionizer_Ionization_penalty_charging>
0.000148807

> <r_ionizer_Ionization_penalty_neutral>
0

$$$$
ZINC001258454522
                    3D
 Structure written by MMmdl.
 47 48  0  0  1  0            999 V2000
   -2.9561    1.5179   -1.9226 C   0  0  0  0  0  0
   -2.1302    0.7677   -0.8693 C   0  0  2  0  0  0
   -2.8655    0.7714    0.4881 C   0  0  0  0  0  0
   -3.8971   -0.3202    0.5773 C   0  0  0  0  0  0
   -3.5133   -1.6740    1.1145 C   0  0  0  0  0  0
   -4.3935   -0.7631    1.9285 C   0  0  0  0  0  0
    0.2295    0.5237   -0.2463 C   0  0  0  0  0  0
    0.9088   -0.2201   -1.3970 C   0  0  0  0  0  0
    2.1630   -1.0018   -0.9436 C   0  0  0  0  0  0
    1.8891   -2.5079   -1.0897 C   0  0  0  0  0  0
    3.3767   -0.6567   -1.8133 C   0  0  0  0  0  0
    2.4861   -0.8425    0.4387 O   0  0  0  0  0  0
    2.3653    0.4297    1.0825 C   0  0  0  0  0  0
    3.7308    1.1218    1.1412 C   0  0  0  0  0  0
    1.9591    0.0804    2.5280 C   0  0  0  0  0  0
    1.3052    1.3495    0.4511 C   0  0  0  0  0  0
   -3.9369    1.0510   -2.0630 H   0  0  0  0  0  0
   -3.1185    2.5649   -1.6376 H   0  0  0  0  0  0
   -2.4527    1.5109   -2.8966 H   0  0  0  0  0  0
   -1.9998   -0.2587   -1.2323 H   0  0  0  0  0  0
   -3.3571    1.7377    0.6506 H   0  0  0  0  0  0
   -2.1498    0.6534    1.3122 H   0  0  0  0  0  0
   -4.6271   -0.2775   -0.2233 H   0  0  0  0  0  0
   -3.9657   -2.5502    0.6662 H   0  0  0  0  0  0
   -2.4939   -1.8286    1.4567 H   0  0  0  0  0  0
   -3.9720   -0.2980    2.8120 H   0  0  0  0  0  0
   -5.4445   -1.0176    2.0218 H   0  0  0  0  0  0
   -0.1958   -0.1911    0.4687 H   0  0  0  0  0  0
    0.1901   -0.8833   -1.8933 H   0  0  0  0  0  0
    1.1973    0.5013   -2.1744 H   0  0  0  0  0  0
    1.0568   -2.8092   -0.4421 H   0  0  0  0  0  0
    1.6449   -2.7825   -2.1208 H   0  0  0  0  0  0
    2.7555   -3.0982   -0.7697 H   0  0  0  0  0  0
    3.5977    0.4144   -1.7889 H   0  0  0  0  0  0
    3.2122   -0.9384   -2.8594 H   0  0  0  0  0  0
    4.2747   -1.1706   -1.4528 H   0  0  0  0  0  0
    4.4923    0.4553    1.5646 H   0  0  0  0  0  0
    4.0869    1.4020    0.1459 H   0  0  0  0  0  0
    3.6931    2.0325    1.7514 H   0  0  0  0  0  0
    2.7031   -0.5725    2.9965 H   0  0  0  0  0  0
    1.0167   -0.4771    2.5451 H   0  0  0  0  0  0
    1.8462    0.9720    3.1523 H   0  0  0  0  0  0
    0.8695    2.0145    1.2091 H   0  0  0  0  0  0
    1.7804    2.0114   -0.2857 H   0  0  0  0  0  0
   -0.8186    1.4530   -0.7471 N   0  3  0  0  0  0
   -0.5388    1.8076   -1.6692 H   0  0  0  0  0  0
   -0.9107    2.2383   -0.0920 H   0  0  0  0  0  0
  1  2  1  0  0  0
  1 17  1  0  0  0
  1 18  1  0  0  0
  1 19  1  0  0  0
  2  3  1  0  0  0
  2 20  1  0  0  0
  2 45  1  0  0  0
  3  4  1  0  0  0
  3 21  1  0  0  0
  3 22  1  0  0  0
  4  5  1  0  0  0
  4  6  1  0  0  0
  4 23  1  0  0  0
  5  6  1  0  0  0
  5 24  1  0  0  0
  5 25  1  0  0  0
  6 26  1  0  0  0
  6 27  1  0  0  0
  7  8  1  0  0  0
  7 16  1  0  0  0
  7 28  1  0  0  0
  7 45  1  0  0  0
  8  9  1  0  0  0
  8 29  1  0  0  0
  8 30  1  0  0  0
  9 10  1  0  0  0
  9 11  1  0  0  0
  9 12  1  0  0  0
 10 31  1  0  0  0
 10 32  1  0  0  0
 10 33  1  0  0  0
 11 34  1  0  0  0
 11 35  1  0  0  0
 11 36  1  0  0  0
 12 13  1  0  0  0
 13 14  1  0  0  0
 13 15  1  0  0  0
 13 16  1  0  0  0
 14 37  1  0  0  0
 14 38  1  0  0  0
 14 39  1  0  0  0
 15 40  1  0  0  0
 15 41  1  0  0  0
 15 42  1  0  0  0
 16 43  1  0  0  0
 16 44  1  0  0  0
 45 46  1  0  0  0
 45 47  1  0  0  0
M  CHG  1  45   1
M  END
> <energy>
62.6443

> <chiral flag>
0

> <version>
0

> <i_ionizer_Ion_state_n>
1

> <i_ionizer_Tot_Q>
1

> <s_ionizer_Ion_centers>
45

> <s_ionizer_Ion_types>
N5

> <s_ionizer_Ion_ctrs_in>
7

> <r_ionizer_Ionization_penalty>
0.000148807

> <r_ionizer_Ionization_penalty_charging>
0.000148807

> <r_ionizer_Ionization_penalty_neutral>
0

$$$$
ZINC001258454523
                    3D
 Structure written by MMmdl.
 47 48  0  0  1  0            999 V2000
   -2.9072    1.1572   -2.3061 C   0  0  0  0  0  0
   -2.0823    0.6336   -1.1234 C   0  0  1  0  0  0
   -2.9234   -0.3536   -0.2810 C   0  0  0  0  0  0
   -3.8586    0.3612    0.6582 C   0  0  0  0  0  0
   -3.3405    0.9566    1.9429 C   0  0  0  0  0  0
   -4.2054   -0.2710    1.9798 C   0  0  0  0  0  0
    0.2072   -0.2327   -0.6872 C   0  0  0  0  0  0
    0.7986    1.0532   -0.1017 C   0  0  0  0  0  0
    2.0533    0.7898    0.7631 C   0  0  0  0  0  0
    1.7460    1.1760    2.2204 C   0  0  0  0  0  0
    3.2446    1.6312    0.2929 C   0  0  0  0  0  0
    2.4186   -0.5889    0.8460 O   0  0  0  0  0  0
    2.4034   -1.4135   -0.3217 C   0  0  0  0  0  0
    3.8053   -1.4964   -0.9335 C   0  0  0  0  0  0
    2.0489   -2.8131    0.2119 C   0  0  0  0  0  0
    1.3614   -0.9767   -1.3663 C   0  0  0  0  0  0
   -3.7717    1.7335   -1.9593 H   0  0  0  0  0  0
   -3.2785    0.3413   -2.9339 H   0  0  0  0  0  0
   -2.3092    1.8231   -2.9380 H   0  0  0  0  0  0
   -1.8253    1.5126   -0.5228 H   0  0  0  0  0  0
   -2.2764   -1.0029    0.3165 H   0  0  0  0  0  0
   -3.5028   -1.0224   -0.9306 H   0  0  0  0  0  0
   -4.6484    0.8913    0.1408 H   0  0  0  0  0  0
   -3.7734    1.8910    2.2852 H   0  0  0  0  0  0
   -2.2880    0.8441    2.1743 H   0  0  0  0  0  0
   -3.7332   -1.2075    2.2526 H   0  0  0  0  0  0
   -5.2205   -0.1659    2.3481 H   0  0  0  0  0  0
   -0.1801   -0.8619    0.1210 H   0  0  0  0  0  0
    0.0455    1.5838    0.4906 H   0  0  0  0  0  0
    1.0519    1.7419   -0.9192 H   0  0  0  0  0  0
    0.9079    0.5825    2.6048 H   0  0  0  0  0  0
    2.6005    0.9599    2.8741 H   0  0  0  0  0  0
    1.4943    2.2361    2.3190 H   0  0  0  0  0  0
    3.0456    2.7037    0.4011 H   0  0  0  0  0  0
    4.1475    1.3853    0.8650 H   0  0  0  0  0  0
    3.4764    1.4469   -0.7608 H   0  0  0  0  0  0
    4.1355   -0.5354   -1.3343 H   0  0  0  0  0  0
    4.5442   -1.7844   -0.1747 H   0  0  0  0  0  0
    3.8402   -2.2275   -1.7486 H   0  0  0  0  0  0
    2.0139   -3.5602   -0.5874 H   0  0  0  0  0  0
    1.0796   -2.8062    0.7248 H   0  0  0  0  0  0
    2.7815   -3.1409    0.9566 H   0  0  0  0  0  0
    1.8274   -0.3094   -2.1059 H   0  0  0  0  0  0
    1.0025   -1.8448   -1.9348 H   0  0  0  0  0  0
   -0.8528    0.0171   -1.7123 N   0  3  0  0  0  0
   -1.1084   -0.8773   -2.1471 H   0  0  0  0  0  0
   -0.4769    0.6504   -2.4278 H   0  0  0  0  0  0
  1  2  1  0  0  0
  1 17  1  0  0  0
  1 18  1  0  0  0
  1 19  1  0  0  0
  2  3  1  0  0  0
  2 20  1  0  0  0
  2 45  1  0  0  0
  3  4  1  0  0  0
  3 21  1  0  0  0
  3 22  1  0  0  0
  4  5  1  0  0  0
  4  6  1  0  0  0
  4 23  1  0  0  0
  5  6  1  0  0  0
  5 24  1  0  0  0
  5 25  1  0  0  0
  6 26  1  0  0  0
  6 27  1  0  0  0
  7  8  1  0  0  0
  7 16  1  0  0  0
  7 28  1  0  0  0
  7 45  1  0  0  0
  8  9  1  0  0  0
  8 29  1  0  0  0
  8 30  1  0  0  0
  9 10  1  0  0  0
  9 11  1  0  0  0
  9 12  1  0  0  0
 10 31  1  0  0  0
 10 32  1  0  0  0
 10 33  1  0  0  0
 11 34  1  0  0  0
 11 35  1  0  0  0
 11 36  1  0  0  0
 12 13  1  0  0  0
 13 14  1  0  0  0
 13 15  1  0  0  0
 13 16  1  0  0  0
 14 37  1  0  0  0
 14 38  1  0  0  0
 14 39  1  0  0  0
 15 40  1  0  0  0
 15 41  1  0  0  0
 15 42  1  0  0  0
 16 43  1  0  0  0
 16 44  1  0  0  0
 45 46  1  0  0  0
 45 47  1  0  0  0
M  CHG  1  45   1
M  END
> <energy>
62.1573

> <chiral flag>
0

> <version>
0

> <i_ionizer_Ion_state_n>
1

> <i_ionizer_Tot_Q>
1

> <s_ionizer_Ion_centers>
45

> <s_ionizer_Ion_types>
N5

> <s_ionizer_Ion_ctrs_in>
7

> <r_ionizer_Ionization_penalty>
0.000148807

> <r_ionizer_Ionization_penalty_charging>
0.000148807

> <r_ionizer_Ionization_penalty_neutral>
0

$$$$
ZINC001258454596
                    3D
 Structure written by MMmdl.
 44 45  0  0  1  0            999 V2000
    4.3383    0.5000   -2.3169 C   0  0  0  0  0  0
    4.2335    1.4730   -1.2754 O   0  0  0  0  0  0
    3.0681    1.2894   -0.5758 C   0  0  0  0  0  0
    2.9549    0.2249    0.3185 C   0  0  0  0  0  0
    1.7633    0.0105    1.0311 C   0  0  0  0  0  0
    1.6946   -1.1537    1.9839 C   0  0  0  0  0  0
    0.6642    0.8692    0.8135 C   0  0  0  0  0  0
   -0.6658    0.6541    1.5107 C   0  0  0  0  0  0
   -1.9855    0.1469   -0.5305 C   0  0  2  0  0  0
   -3.2587    0.6191   -1.2486 C   0  0  0  0  0  0
   -1.9671   -1.3914   -0.3661 C   0  0  0  0  0  0
   -2.9743   -1.9388    0.6138 C   0  0  0  0  0  0
   -2.5352   -2.5235    1.9338 C   0  0  0  0  0  0
   -3.0319   -3.4278    0.8453 C   0  0  0  0  0  0
    0.8331    1.9822   -0.0334 C   0  0  0  0  0  0
    2.0315    2.2115   -0.7263 C   0  0  0  0  0  0
    2.1536    3.3797   -1.6584 C   0  0  0  0  0  0
    3.4215    0.4496   -2.9176 H   0  0  0  0  0  0
    4.5811   -0.4863   -1.9065 H   0  0  0  0  0  0
    5.1575    0.8012   -2.9775 H   0  0  0  0  0  0
    3.8040   -0.4395    0.4625 H   0  0  0  0  0  0
    1.0306   -1.9278    1.5866 H   0  0  0  0  0  0
    1.3339   -0.8295    2.9667 H   0  0  0  0  0  0
    2.6808   -1.6056    2.1391 H   0  0  0  0  0  0
   -0.7400   -0.3617    1.8971 H   0  0  0  0  0  0
   -0.6819    1.3081    2.3894 H   0  0  0  0  0  0
   -1.1565    0.4054   -1.2020 H   0  0  0  0  0  0
   -4.1599    0.4646   -0.6464 H   0  0  0  0  0  0
   -3.1989    1.6892   -1.4800 H   0  0  0  0  0  0
   -3.3918    0.0849   -2.1952 H   0  0  0  0  0  0
   -0.9564   -1.7135   -0.0816 H   0  0  0  0  0  0
   -2.1571   -1.8488   -1.3463 H   0  0  0  0  0  0
   -3.9314   -1.4329    0.5723 H   0  0  0  0  0  0
   -1.4790   -2.5761    2.1687 H   0  0  0  0  0  0
   -3.1742   -2.3673    2.7962 H   0  0  0  0  0  0
   -4.0052   -3.8877    0.9745 H   0  0  0  0  0  0
   -2.3042   -4.0584    0.3454 H   0  0  0  0  0  0
   -0.0021    2.6668   -0.1740 H   0  0  0  0  0  0
    1.3945    4.1402   -1.4458 H   0  0  0  0  0  0
    2.0273    3.0435   -2.6922 H   0  0  0  0  0  0
    3.1307    3.8641   -1.5557 H   0  0  0  0  0  0
   -1.8900    0.9635    0.7192 N   0  3  0  0  0  0
   -2.7147    0.7737    1.3006 H   0  0  0  0  0  0
   -1.8736    1.9576    0.4626 H   0  0  0  0  0  0
  1  2  1  0  0  0
  1 18  1  0  0  0
  1 19  1  0  0  0
  1 20  1  0  0  0
  2  3  1  0  0  0
  3  4  2  0  0  0
  3 16  1  0  0  0
  4  5  1  0  0  0
  4 21  1  0  0  0
  5  6  1  0  0  0
  5  7  2  0  0  0
  6 22  1  0  0  0
  6 23  1  0  0  0
  6 24  1  0  0  0
  7  8  1  0  0  0
  7 15  1  0  0  0
  8 25  1  0  0  0
  8 26  1  0  0  0
  8 42  1  0  0  0
  9 10  1  0  0  0
  9 11  1  0  0  0
  9 27  1  0  0  0
  9 42  1  0  0  0
 10 28  1  0  0  0
 10 29  1  0  0  0
 10 30  1  0  0  0
 11 12  1  0  0  0
 11 31  1  0  0  0
 11 32  1  0  0  0
 12 13  1  0  0  0
 12 14  1  0  0  0
 12 33  1  0  0  0
 13 14  1  0  0  0
 13 34  1  0  0  0
 13 35  1  0  0  0
 14 36  1  0  0  0
 14 37  1  0  0  0
 15 16  2  0  0  0
 15 38  1  0  0  0
 16 17  1  0  0  0
 17 39  1  0  0  0
 17 40  1  0  0  0
 17 41  1  0  0  0
 42 43  1  0  0  0
 42 44  1  0  0  0
M  CHG  1  42   1
M  END
> <energy>
59.248

> <chiral flag>
0

> <version>
0

> <i_ionizer_Ion_state_n>
1

> <i_ionizer_Tot_Q>
1

> <s_ionizer_Ion_centers>
42

> <s_ionizer_Ion_types>
N5

> <s_ionizer_Ion_ctrs_in>
9

> <r_ionizer_Ionization_penalty>
0.000148807

> <r_ionizer_Ionization_penalty_charging>
0.000148807

> <r_ionizer_Ionization_penalty_neutral>
0

$$$$
ZINC001258454598
                    3D
 Structure written by MMmdl.
 44 45  0  0  1  0            999 V2000
    1.9820   -3.8680    0.7744 C   0  0  0  0  0  0
    2.9421   -2.8198    0.6615 O   0  0  0  0  0  0
    2.3726   -1.6504    0.2265 C   0  0  0  0  0  0
    1.7439   -1.5685   -1.0179 C   0  0  0  0  0  0
    1.1883   -0.3587   -1.4670 C   0  0  0  0  0  0
    0.5230   -0.3177   -2.8161 C   0  0  0  0  0  0
    1.2809    0.7878   -0.6499 C   0  0  0  0  0  0
    0.7070    2.1251   -1.0639 C   0  0  0  0  0  0
   -1.3213    2.2704    0.3281 C   0  0  1  0  0  0
   -2.4910    3.2680    0.3346 C   0  0  0  0  0  0
   -1.7775    0.8979    0.8781 C   0  0  0  0  0  0
   -2.6958    0.1176   -0.0299 C   0  0  0  0  0  0
   -3.4242   -1.0861    0.5172 C   0  0  0  0  0  0
   -2.3162   -1.2730   -0.4756 C   0  0  0  0  0  0
    1.9469    0.6925    0.5883 C   0  0  0  0  0  0
    2.5016   -0.5152    1.0321 C   0  0  0  0  0  0
    3.2162   -0.5832    2.3501 C   0  0  0  0  0  0
    2.4401   -4.6782    1.3502 H   0  0  0  0  0  0
    1.0860   -3.5376    1.3124 H   0  0  0  0  0  0
    1.7170   -4.2667   -0.2094 H   0  0  0  0  0  0
    1.6982   -2.4487   -1.6532 H   0  0  0  0  0  0
   -0.5242   -0.0171   -2.7240 H   0  0  0  0  0  0
    0.5357   -1.3007   -3.2995 H   0  0  0  0  0  0
    1.0480    0.3776   -3.4790 H   0  0  0  0  0  0
    1.0399    2.3280   -2.0896 H   0  0  0  0  0  0
    1.1440    2.9391   -0.4711 H   0  0  0  0  0  0
   -0.5797    2.6806    1.0264 H   0  0  0  0  0  0
   -3.2688    3.0001   -0.3878 H   0  0  0  0  0  0
   -2.9531    3.3184    1.3266 H   0  0  0  0  0  0
   -2.1391    4.2765    0.0861 H   0  0  0  0  0  0
   -0.8993    0.2895    1.1202 H   0  0  0  0  0  0
   -2.2958    1.0621    1.8324 H   0  0  0  0  0  0
   -3.2373    0.7372   -0.7338 H   0  0  0  0  0  0
   -3.2383   -1.3846    1.5426 H   0  0  0  0  0  0
   -4.4394   -1.2634    0.1805 H   0  0  0  0  0  0
   -1.3824   -1.6941   -0.1214 H   0  0  0  0  0  0
   -2.5761   -1.5645   -1.4862 H   0  0  0  0  0  0
    2.0302    1.5776    1.2165 H   0  0  0  0  0  0
    2.7442   -1.3274    2.9996 H   0  0  0  0  0  0
    4.2671   -0.8484    2.1969 H   0  0  0  0  0  0
    3.1870    0.3784    2.8732 H   0  0  0  0  0  0
   -0.7755    2.2049   -1.0578 N   0  3  0  0  0  0
   -1.0649    3.0469   -1.5691 H   0  0  0  0  0  0
   -1.1548    1.3732   -1.5254 H   0  0  0  0  0  0
  1  2  1  0  0  0
  1 18  1  0  0  0
  1 19  1  0  0  0
  1 20  1  0  0  0
  2  3  1  0  0  0
  3  4  2  0  0  0
  3 16  1  0  0  0
  4  5  1  0  0  0
  4 21  1  0  0  0
  5  6  1  0  0  0
  5  7  2  0  0  0
  6 22  1  0  0  0
  6 23  1  0  0  0
  6 24  1  0  0  0
  7  8  1  0  0  0
  7 15  1  0  0  0
  8 25  1  0  0  0
  8 26  1  0  0  0
  8 42  1  0  0  0
  9 10  1  0  0  0
  9 11  1  0  0  0
  9 27  1  0  0  0
  9 42  1  0  0  0
 10 28  1  0  0  0
 10 29  1  0  0  0
 10 30  1  0  0  0
 11 12  1  0  0  0
 11 31  1  0  0  0
 11 32  1  0  0  0
 12 13  1  0  0  0
 12 14  1  0  0  0
 12 33  1  0  0  0
 13 14  1  0  0  0
 13 34  1  0  0  0
 13 35  1  0  0  0
 14 36  1  0  0  0
 14 37  1  0  0  0
 15 16  2  0  0  0
 15 38  1  0  0  0
 16 17  1  0  0  0
 17 39  1  0  0  0
 17 40  1  0  0  0
 17 41  1  0  0  0
 42 43  1  0  0  0
 42 44  1  0  0  0
M  CHG  1  42   1
M  END
> <energy>
60.4019

> <chiral flag>
0

> <version>
0

> <i_ionizer_Ion_state_n>
1

> <i_ionizer_Tot_Q>
1

> <s_ionizer_Ion_centers>
42

> <s_ionizer_Ion_types>
N5

> <s_ionizer_Ion_ctrs_in>
9

> <r_ionizer_Ionization_penalty>
0.000148807

> <r_ionizer_Ionization_penalty_charging>
0.000148807

> <r_ionizer_Ionization_penalty_neutral>
0

$$$$
ZINC001258454618
                    3D
 Structure written by MMmdl.
 45 46  0  0  1  0            999 V2000
   -3.2057   -1.7628    1.6107 C   0  0  0  0  0  0
   -2.7973   -0.3285    1.2381 C   0  0  0  0  0  0
   -4.0005    0.4173    0.6495 C   0  0  0  0  0  0
   -1.6134   -0.4035    0.2429 C   0  0  0  0  0  0
   -0.8486    0.9112   -0.0605 C   0  0  1  0  0  0
   -0.0559   -0.1856   -2.2612 C   0  0  1  0  0  0
    0.3316    0.2642   -3.6817 C   0  0  0  0  0  0
    0.9695   -1.2267   -1.7515 C   0  0  0  0  0  0
    2.2944   -0.6613   -1.3116 C   0  0  0  0  0  0
    3.4858   -1.5784   -1.2249 C   0  0  0  0  0  0
    2.8673   -1.0394    0.0314 C   0  0  0  0  0  0
    0.2381    1.2923    0.9688 C   0  0  0  0  0  0
    0.3474    0.6937    2.2226 C   0  0  0  0  0  0
    1.3589    1.0852    3.0969 C   0  0  0  0  0  0
    2.2441    2.0787    2.7146 C   0  0  0  0  0  0
    2.0730    2.6397    1.4639 C   0  0  0  0  0  0
    1.1020    2.2811    0.5910 N   0  0  0  0  0  0
   -4.0283   -1.7767    2.3340 H   0  0  0  0  0  0
   -2.3666   -2.3073    2.0609 H   0  0  0  0  0  0
   -3.5269   -2.3187    0.7236 H   0  0  0  0  0  0
   -2.5036    0.1914    2.1579 H   0  0  0  0  0  0
   -4.2407    0.0633   -0.3617 H   0  0  0  0  0  0
   -4.8886    0.2743    1.2814 H   0  0  0  0  0  0
   -3.8016    1.4966    0.6009 H   0  0  0  0  0  0
   -0.8951   -1.1549    0.5945 H   0  0  0  0  0  0
   -2.0405   -0.8096   -0.6774 H   0  0  0  0  0  0
   -1.5653    1.7368   -0.0019 H   0  0  0  0  0  0
   -1.0059   -0.7104   -2.4078 H   0  0  0  0  0  0
    1.2912    0.7931   -3.7088 H   0  0  0  0  0  0
    0.4172   -0.6052   -4.3495 H   0  0  0  0  0  0
   -0.4336    0.9177   -4.1163 H   0  0  0  0  0  0
    1.1554   -1.9446   -2.5663 H   0  0  0  0  0  0
    0.5274   -1.8249   -0.9451 H   0  0  0  0  0  0
    2.4802    0.3442   -1.6734 H   0  0  0  0  0  0
    4.4470   -1.1805   -1.5365 H   0  0  0  0  0  0
    3.3577   -2.6320   -1.4498 H   0  0  0  0  0  0
    2.3046   -1.7091    0.6771 H   0  0  0  0  0  0
    3.4082   -0.2752    0.5768 H   0  0  0  0  0  0
   -0.3339   -0.0860    2.5415 H   0  0  0  0  0  0
    1.4571    0.6075    4.0675 H   0  0  0  0  0  0
    3.0474    2.3979    3.3676 H   0  0  0  0  0  0
    2.7386    3.4268    1.1113 H   0  0  0  0  0  0
   -0.2936    1.0866   -1.4820 N   0  3  0  0  0  0
   -0.9611    1.6591   -2.0120 H   0  0  0  0  0  0
    0.6023    1.5831   -1.4110 H   0  0  0  0  0  0
  1  2  1  0  0  0
  1 18  1  0  0  0
  1 19  1  0  0  0
  1 20  1  0  0  0
  2  3  1  0  0  0
  2  4  1  0  0  0
  2 21  1  0  0  0
  3 22  1  0  0  0
  3 23  1  0  0  0
  3 24  1  0  0  0
  4  5  1  0  0  0
  4 25  1  0  0  0
  4 26  1  0  0  0
  5 12  1  0  0  0
  5 27  1  0  0  0
  5 43  1  0  0  0
  6  7  1  0  0  0
  6  8  1  0  0  0
  6 28  1  0  0  0
  6 43  1  0  0  0
  7 29  1  0  0  0
  7 30  1  0  0  0
  7 31  1  0  0  0
  8  9  1  0  0  0
  8 32  1  0  0  0
  8 33  1  0  0  0
  9 10  1  0  0  0
  9 11  1  0  0  0
  9 34  1  0  0  0
 10 11  1  0  0  0
 10 35  1  0  0  0
 10 36  1  0  0  0
 11 37  1  0  0  0
 11 38  1  0  0  0
 12 13  2  0  0  0
 12 17  1  0  0  0
 13 14  1  0  0  0
 13 39  1  0  0  0
 14 15  2  0  0  0
 14 40  1  0  0  0
 15 16  1  0  0  0
 15 41  1  0  0  0
 16 17  2  0  0  0
 16 42  1  0  0  0
 43 44  1  0  0  0
 43 45  1  0  0  0
M  CHG  1  43   1
M  END
> <energy>
80.4041

> <chiral flag>
0

> <version>
0

> <i_ionizer_Ion_state_n>
1

> <i_ionizer_Tot_Q>
1

> <s_ionizer_Ion_centers>
43

> <s_ionizer_Ion_types>
N5

> <s_ionizer_Ion_ctrs_in>
6

> <r_ionizer_Ionization_penalty>
0.0075612

> <r_ionizer_Ionization_penalty_charging>
0.000148807

> <r_ionizer_Ionization_penalty_neutral>
0.00741239

$$$$
ZINC001258454619
                    3D
 Structure written by MMmdl.
 45 46  0  0  1  0            999 V2000
   -3.1718   -1.1755    0.2808 C   0  0  0  0  0  0
   -3.0131    0.0885   -0.5602 C   0  0  0  0  0  0
   -2.7887   -0.2728   -2.0285 C   0  0  0  0  0  0
   -1.9461    1.0774   -0.0380 C   0  0  0  0  0  0
   -0.4822    0.5719    0.1054 C   0  0  1  0  0  0
    0.8810   -1.0577    1.4921 C   0  0  2  0  0  0
    1.7831   -0.2789    2.4569 C   0  0  0  0  0  0
    1.6994   -1.5407    0.2731 C   0  0  0  0  0  0
    0.9869   -2.5682   -0.5677 C   0  0  0  0  0  0
    1.7772   -3.3514   -1.5891 C   0  0  0  0  0  0
    0.7696   -2.3384   -2.0434 C   0  0  0  0  0  0
    0.4465    1.7885    0.1797 C   0  0  0  0  0  0
    0.3765    2.7065    1.2298 C   0  0  0  0  0  0
    1.2267    3.8102    1.2247 C   0  0  0  0  0  0
    2.1182    3.9795    0.1729 C   0  0  0  0  0  0
    2.1267    3.0297   -0.8316 C   0  0  0  0  0  0
    1.3188    1.9476   -0.8507 N   0  0  0  0  0  0
   -2.3121   -1.8449    0.1815 H   0  0  0  0  0  0
   -4.0546   -1.7372   -0.0428 H   0  0  0  0  0  0
   -3.3083   -0.9302    1.3392 H   0  0  0  0  0  0
   -3.9705    0.6236   -0.5102 H   0  0  0  0  0  0
   -2.6914    0.6282   -2.6429 H   0  0  0  0  0  0
   -3.6387   -0.8463   -2.4145 H   0  0  0  0  0  0
   -1.8893   -0.8789   -2.1652 H   0  0  0  0  0  0
   -1.9551    1.9463   -0.7135 H   0  0  0  0  0  0
   -2.2909    1.4689    0.9303 H   0  0  0  0  0  0
   -0.2387    0.0323   -0.8146 H   0  0  0  0  0  0
    0.5821   -1.9604    2.0418 H   0  0  0  0  0  0
    1.2245    0.0693    3.3328 H   0  0  0  0  0  0
    2.5893   -0.9239    2.8265 H   0  0  0  0  0  0
    2.2485    0.5855    1.9762 H   0  0  0  0  0  0
    2.0291   -0.6937   -0.3380 H   0  0  0  0  0  0
    2.6184   -2.0113    0.6477 H   0  0  0  0  0  0
    0.2367   -3.1215   -0.0147 H   0  0  0  0  0  0
    1.5367   -4.4002   -1.7172 H   0  0  0  0  0  0
    2.8260   -3.1165   -1.7279 H   0  0  0  0  0  0
   -0.1540   -2.7001   -2.4814 H   0  0  0  0  0  0
    1.1373   -1.4177   -2.4840 H   0  0  0  0  0  0
   -0.3289    2.5705    2.0427 H   0  0  0  0  0  0
    1.1899    4.5337    2.0337 H   0  0  0  0  0  0
    2.7863    4.8320    0.1358 H   0  0  0  0  0  0
    2.8035    3.1166   -1.6778 H   0  0  0  0  0  0
   -0.4384   -0.3591    1.2920 N   0  3  0  0  0  0
   -0.6422    0.1884    2.1364 H   0  0  0  0  0  0
   -1.1636   -1.0747    1.1647 H   0  0  0  0  0  0
  1  2  1  0  0  0
  1 18  1  0  0  0
  1 19  1  0  0  0
  1 20  1  0  0  0
  2  3  1  0  0  0
  2  4  1  0  0  0
  2 21  1  0  0  0
  3 22  1  0  0  0
  3 23  1  0  0  0
  3 24  1  0  0  0
  4  5  1  0  0  0
  4 25  1  0  0  0
  4 26  1  0  0  0
  5 12  1  0  0  0
  5 27  1  0  0  0
  5 43  1  0  0  0
  6  7  1  0  0  0
  6  8  1  0  0  0
  6 28  1  0  0  0
  6 43  1  0  0  0
  7 29  1  0  0  0
  7 30  1  0  0  0
  7 31  1  0  0  0
  8  9  1  0  0  0
  8 32  1  0  0  0
  8 33  1  0  0  0
  9 10  1  0  0  0
  9 11  1  0  0  0
  9 34  1  0  0  0
 10 11  1  0  0  0
 10 35  1  0  0  0
 10 36  1  0  0  0
 11 37  1  0  0  0
 11 38  1  0  0  0
 12 13  2  0  0  0
 12 17  1  0  0  0
 13 14  1  0  0  0
 13 39  1  0  0  0
 14 15  2  0  0  0
 14 40  1  0  0  0
 15 16  1  0  0  0
 15 41  1  0  0  0
 16 17  2  0  0  0
 16 42  1  0  0  0
 43 44  1  0  0  0
 43 45  1  0  0  0
M  CHG  1  43   1
M  END
> <energy>
75.6368

> <chiral flag>
0

> <version>
0

> <i_ionizer_Ion_state_n>
1

> <i_ionizer_Tot_Q>
1

> <s_ionizer_Ion_centers>
43

> <s_ionizer_Ion_types>
N5

> <s_ionizer_Ion_ctrs_in>
6

> <r_ionizer_Ionization_penalty>
0.0075612

> <r_ionizer_Ionization_penalty_charging>
0.000148807

> <r_ionizer_Ionization_penalty_neutral>
0.00741239

$$$$
ZINC001258454621
                    3D
 Structure written by MMmdl.
 45 46  0  0  1  0            999 V2000
    2.3861   -2.2865   -0.4275 C   0  0  0  0  0  0
    1.8830   -1.7520    0.9172 C   0  0  0  0  0  0
    2.7942   -2.2523    2.0418 C   0  0  0  0  0  0
    1.8317   -0.2084    0.9274 C   0  0  0  0  0  0
    0.6585    0.4027    0.1190 C   0  0  2  0  0  0
   -1.8018    0.5149    0.0588 C   0  0  2  0  0  0
   -2.4853    1.7677    0.6134 C   0  0  0  0  0  0
   -2.7984   -0.6673    0.1177 C   0  0  0  0  0  0
   -2.2921   -1.8998   -0.5838 C   0  0  0  0  0  0
   -2.4599   -2.0542   -2.0730 C   0  0  0  0  0  0
   -3.2775   -2.8986   -1.1350 C   0  0  0  0  0  0
    0.9927    1.8511   -0.2363 C   0  0  0  0  0  0
    1.0764    2.8367    0.7491 C   0  0  0  0  0  0
    1.4095    4.1374    0.3782 C   0  0  0  0  0  0
    1.6541    4.4235   -0.9580 C   0  0  0  0  0  0
    1.5516    3.3920   -1.8757 C   0  0  0  0  0  0
    1.2279    2.1215   -1.5474 N   0  0  0  0  0  0
    3.3749   -1.8830   -0.6749 H   0  0  0  0  0  0
    2.4681   -3.3779   -0.4041 H   0  0  0  0  0  0
    1.7026   -2.0309   -1.2419 H   0  0  0  0  0  0
    0.8847   -2.1645    1.0987 H   0  0  0  0  0  0
    2.8450   -3.3464    2.0439 H   0  0  0  0  0  0
    3.8122   -1.8614    1.9377 H   0  0  0  0  0  0
    2.4083   -1.9384    3.0172 H   0  0  0  0  0  0
    2.7885    0.1733    0.5458 H   0  0  0  0  0  0
    1.7681    0.1468    1.9644 H   0  0  0  0  0  0
    0.5669   -0.1555   -0.8204 H   0  0  0  0  0  0
   -1.5442    0.6880   -0.9945 H   0  0  0  0  0  0
   -2.7371    1.6464    1.6733 H   0  0  0  0  0  0
   -3.4161    1.9767    0.0749 H   0  0  0  0  0  0
   -1.8456    2.6495    0.5203 H   0  0  0  0  0  0
   -3.7474   -0.3545   -0.3386 H   0  0  0  0  0  0
   -3.0291   -0.9218    1.1601 H   0  0  0  0  0  0
   -1.3926   -2.3010   -0.1326 H   0  0  0  0  0  0
   -2.9674   -1.2709   -2.6248 H   0  0  0  0  0  0
   -1.6610   -2.5343   -2.6260 H   0  0  0  0  0  0
   -4.3367   -2.6840   -1.0487 H   0  0  0  0  0  0
   -3.0336   -3.9526   -1.0561 H   0  0  0  0  0  0
    0.8715    2.5961    1.7874 H   0  0  0  0  0  0
    1.4771    4.9196    1.1288 H   0  0  0  0  0  0
    1.9164    5.4256   -1.2791 H   0  0  0  0  0  0
    1.7318    3.5645   -2.9330 H   0  0  0  0  0  0
   -0.6051    0.2486    0.9051 N   0  3  0  0  0  0
   -0.6587   -0.7101    1.2686 H   0  0  0  0  0  0
   -0.5950    0.9118    1.6889 H   0  0  0  0  0  0
  1  2  1  0  0  0
  1 18  1  0  0  0
  1 19  1  0  0  0
  1 20  1  0  0  0
  2  3  1  0  0  0
  2  4  1  0  0  0
  2 21  1  0  0  0
  3 22  1  0  0  0
  3 23  1  0  0  0
  3 24  1  0  0  0
  4  5  1  0  0  0
  4 25  1  0  0  0
  4 26  1  0  0  0
  5 12  1  0  0  0
  5 27  1  0  0  0
  5 43  1  0  0  0
  6  7  1  0  0  0
  6  8  1  0  0  0
  6 28  1  0  0  0
  6 43  1  0  0  0
  7 29  1  0  0  0
  7 30  1  0  0  0
  7 31  1  0  0  0
  8  9  1  0  0  0
  8 32  1  0  0  0
  8 33  1  0  0  0
  9 10  1  0  0  0
  9 11  1  0  0  0
  9 34  1  0  0  0
 10 11  1  0  0  0
 10 35  1  0  0  0
 10 36  1  0  0  0
 11 37  1  0  0  0
 11 38  1  0  0  0
 12 13  2  0  0  0
 12 17  1  0  0  0
 13 14  1  0  0  0
 13 39  1  0  0  0
 14 15  2  0  0  0
 14 40  1  0  0  0
 15 16  1  0  0  0
 15 41  1  0  0  0
 16 17  2  0  0  0
 16 42  1  0  0  0
 43 44  1  0  0  0
 43 45  1  0  0  0
M  CHG  1  43   1
M  END
> <energy>
70.0074

> <chiral flag>
0

> <version>
0

> <i_ionizer_Ion_state_n>
1

> <i_ionizer_Tot_Q>
1

> <s_ionizer_Ion_centers>
43

> <s_ionizer_Ion_types>
N5

> <s_ionizer_Ion_ctrs_in>
6

> <r_ionizer_Ionization_penalty>
0.0075612

> <r_ionizer_Ionization_penalty_charging>
0.000148807

> <r_ionizer_Ionization_penalty_neutral>
0.00741239

$$$$
ZINC001258454623
                    3D
 Structure written by MMmdl.
 45 46  0  0  1  0            999 V2000
   -2.9929    1.4885   -1.7996 C   0  0  0  0  0  0
   -2.2612    1.3981   -0.4559 C   0  0  0  0  0  0
   -3.1840    0.7490    0.5778 C   0  0  0  0  0  0
   -0.9368    0.6182   -0.6307 C   0  0  0  0  0  0
    0.0368    0.7025    0.5658 C   0  0  2  0  0  0
    0.9993   -1.6597    0.6074 C   0  0  1  0  0  0
    0.0017   -2.0491    1.7018 C   0  0  0  0  0  0
    0.6837   -2.3658   -0.7323 C   0  0  0  0  0  0
    1.2683   -3.7548   -0.7845 C   0  0  0  0  0  0
    1.6076   -4.3751   -2.1147 C   0  0  0  0  0  0
    2.7097   -3.9604   -1.1790 C   0  0  0  0  0  0
    0.5604    2.1467    0.7093 C   0  0  0  0  0  0
    0.2014    2.9109    1.8179 C   0  0  0  0  0  0
    0.6984    4.2060    1.9406 C   0  0  0  0  0  0
    1.5550    4.7046    0.9666 C   0  0  0  0  0  0
    1.8725    3.8841   -0.1008 C   0  0  0  0  0  0
    1.3952    2.6301   -0.2493 N   0  0  0  0  0  0
   -3.9567    1.9992   -1.6887 H   0  0  0  0  0  0
   -2.3939    2.0544   -2.5233 H   0  0  0  0  0  0
   -3.1813    0.4927   -2.2186 H   0  0  0  0  0  0
   -2.0469    2.4208   -0.1286 H   0  0  0  0  0  0
   -2.7052    0.6718    1.5580 H   0  0  0  0  0  0
   -4.0950    1.3417    0.7068 H   0  0  0  0  0  0
   -3.4865   -0.2579    0.2702 H   0  0  0  0  0  0
   -1.2048   -0.4226   -0.8309 H   0  0  0  0  0  0
   -0.4293    0.9843   -1.5319 H   0  0  0  0  0  0
   -0.4911    0.4654    1.4935 H   0  0  0  0  0  0
    1.9808   -2.0299    0.9384 H   0  0  0  0  0  0
   -1.0271   -1.8103    1.4129 H   0  0  0  0  0  0
    0.2255   -1.5293    2.6404 H   0  0  0  0  0  0
    0.0441   -3.1246    1.9052 H   0  0  0  0  0  0
   -0.3983   -2.4467   -0.8822 H   0  0  0  0  0  0
    1.0785   -1.7742   -1.5700 H   0  0  0  0  0  0
    0.8524   -4.4083   -0.0284 H   0  0  0  0  0  0
    1.4701   -3.7847   -3.0147 H   0  0  0  0  0  0
    1.4092   -5.4330   -2.2446 H   0  0  0  0  0  0
    3.2687   -4.7362   -0.6693 H   0  0  0  0  0  0
    3.3024   -3.0938   -1.4496 H   0  0  0  0  0  0
   -0.4617    2.5125    2.5805 H   0  0  0  0  0  0
    0.4243    4.8195    2.7934 H   0  0  0  0  0  0
    1.9681    5.7021    1.0383 H   0  0  0  0  0  0
    2.5367    4.2197   -0.8908 H   0  0  0  0  0  0
    1.2562   -0.1874    0.4100 N   0  3  0  0  0  0
    1.6296   -0.0535   -0.5370 H   0  0  0  0  0  0
    1.9571    0.1088    1.0993 H   0  0  0  0  0  0
  1  2  1  0  0  0
  1 18  1  0  0  0
  1 19  1  0  0  0
  1 20  1  0  0  0
  2  3  1  0  0  0
  2  4  1  0  0  0
  2 21  1  0  0  0
  3 22  1  0  0  0
  3 23  1  0  0  0
  3 24  1  0  0  0
  4  5  1  0  0  0
  4 25  1  0  0  0
  4 26  1  0  0  0
  5 12  1  0  0  0
  5 27  1  0  0  0
  5 43  1  0  0  0
  6  7  1  0  0  0
  6  8  1  0  0  0
  6 28  1  0  0  0
  6 43  1  0  0  0
  7 29  1  0  0  0
  7 30  1  0  0  0
  7 31  1  0  0  0
  8  9  1  0  0  0
  8 32  1  0  0  0
  8 33  1  0  0  0
  9 10  1  0  0  0
  9 11  1  0  0  0
  9 34  1  0  0  0
 10 11  1  0  0  0
 10 35  1  0  0  0
 10 36  1  0  0  0
 11 37  1  0  0  0
 11 38  1  0  0  0
 12 13  2  0  0  0
 12 17  1  0  0  0
 13 14  1  0  0  0
 13 39  1  0  0  0
 14 15  2  0  0  0
 14 40  1  0  0  0
 15 16  1  0  0  0
 15 41  1  0  0  0
 16 17  2  0  0  0
 16 42  1  0  0  0
 43 44  1  0  0  0
 43 45  1  0  0  0
M  CHG  1  43   1
M  END
> <energy>
76.7473

> <chiral flag>
0

> <version>
0

> <i_ionizer_Ion_state_n>
1

> <i_ionizer_Tot_Q>
1

> <s_ionizer_Ion_centers>
43

> <s_ionizer_Ion_types>
N5

> <s_ionizer_Ion_ctrs_in>
6

> <r_ionizer_Ionization_penalty>
0.0075612

> <r_ionizer_Ionization_penalty_charging>
0.000148807

> <r_ionizer_Ionization_penalty_neutral>
0.00741239

$$$$
ZINC001258454733
                    3D
 Structure written by MMmdl.
 37 38  0  0  1  0            999 V2000
    3.6974    1.3250    1.2698 C   0  0  0  0  0  0
    3.1247    0.3322    0.3000 C   0  0  0  0  0  0
    3.5706    0.3047   -1.0235 C   0  0  0  0  0  0
    3.0182   -0.5951   -1.9343 C   0  0  0  0  0  0
    2.0026   -1.4678   -1.5333 C   0  0  0  0  0  0
    1.3707   -2.5501   -2.7229 Cl  0  0  0  0  0  0
    1.5212   -1.4494   -0.2147 C   0  0  0  0  0  0
    0.4235   -2.3701    0.2634 C   0  0  0  0  0  0
   -1.6299   -0.9939    0.4035 C   0  0  2  0  0  0
   -3.1148   -1.3830    0.3693 C   0  0  0  0  0  0
   -1.4109    0.3785   -0.2683 C   0  0  0  0  0  0
   -2.0313    1.5022    0.5157 C   0  0  0  0  0  0
   -2.1419    2.8693   -0.1058 C   0  0  0  0  0  0
   -3.3813    2.0565    0.1372 C   0  0  0  0  0  0
    2.0971   -0.5387    0.6931 C   0  0  0  0  0  0
    3.6762    0.9333    2.2914 H   0  0  0  0  0  0
    4.7426    1.5434    1.0278 H   0  0  0  0  0  0
    3.1248    2.2564    1.2350 H   0  0  0  0  0  0
    4.3528    0.9845   -1.3549 H   0  0  0  0  0  0
    3.3803   -0.6071   -2.9597 H   0  0  0  0  0  0
    0.3930   -2.4007    1.3600 H   0  0  0  0  0  0
    0.6894   -3.3952   -0.0233 H   0  0  0  0  0  0
   -1.3369   -0.9428    1.4596 H   0  0  0  0  0  0
   -3.5135   -1.3688   -0.6514 H   0  0  0  0  0  0
   -3.2663   -2.3889    0.7788 H   0  0  0  0  0  0
   -3.7160   -0.6993    0.9771 H   0  0  0  0  0  0
   -1.7965    0.3647   -1.2967 H   0  0  0  0  0  0
   -0.3413    0.5953   -0.3417 H   0  0  0  0  0  0
   -1.7661    1.4666    1.5668 H   0  0  0  0  0  0
   -1.8168    3.0009   -1.1320 H   0  0  0  0  0  0
   -1.9639    3.7303    0.5291 H   0  0  0  0  0  0
   -4.0445    2.3609    0.9387 H   0  0  0  0  0  0
   -3.8919    1.6440   -0.7253 H   0  0  0  0  0  0
    1.7364   -0.5043    1.7196 H   0  0  0  0  0  0
   -0.9212   -2.0959   -0.3040 N   0  3  0  0  0  0
   -0.8142   -1.8367   -1.2918 H   0  0  0  0  0  0
   -1.4877   -2.9493   -0.2336 H   0  0  0  0  0  0
  1  2  1  0  0  0
  1 16  1  0  0  0
  1 17  1  0  0  0
  1 18  1  0  0  0
  2  3  2  0  0  0
  2 15  1  0  0  0
  3  4  1  0  0  0
  3 19  1  0  0  0
  4  5  2  0  0  0
  4 20  1  0  0  0
  5  6  1  0  0  0
  5  7  1  0  0  0
  7  8  1  0  0  0
  7 15  2  0  0  0
  8 21  1  0  0  0
  8 22  1  0  0  0
  8 35  1  0  0  0
  9 10  1  0  0  0
  9 11  1  0  0  0
  9 23  1  0  0  0
  9 35  1  0  0  0
 10 24  1  0  0  0
 10 25  1  0  0  0
 10 26  1  0  0  0
 11 12  1  0  0  0
 11 27  1  0  0  0
 11 28  1  0  0  0
 12 13  1  0  0  0
 12 14  1  0  0  0
 12 29  1  0  0  0
 13 14  1  0  0  0
 13 30  1  0  0  0
 13 31  1  0  0  0
 14 32  1  0  0  0
 14 33  1  0  0  0
 15 34  1  0  0  0
 35 36  1  0  0  0
 35 37  1  0  0  0
M  CHG  1  35   1
M  END
> <energy>
46.6958

> <chiral flag>
0

> <version>
0

> <i_ionizer_Ion_state_n>
1

> <i_ionizer_Tot_Q>
1

> <s_ionizer_Ion_centers>
35

> <s_ionizer_Ion_types>
N5

> <s_ionizer_Ion_ctrs_in>
9

> <r_ionizer_Ionization_penalty>
0.000148807

> <r_ionizer_Ionization_penalty_charging>
0.000148807

> <r_ionizer_Ionization_penalty_neutral>
0

$$$$
ZINC001258454734
                    3D
 Structure written by MMmdl.
 37 38  0  0  1  0            999 V2000
    4.5041    0.3776    1.4842 C   0  0  0  0  0  0
    3.7399    0.0883    0.2265 C   0  0  0  0  0  0
    4.2933    0.3664   -1.0234 C   0  0  0  0  0  0
    3.5566    0.1297   -2.1854 C   0  0  0  0  0  0
    2.2543   -0.3772   -2.1113 C   0  0  0  0  0  0
    1.4230   -0.6408   -3.6023 Cl  0  0  0  0  0  0
    1.6655   -0.6438   -0.8673 C   0  0  0  0  0  0
    0.2713   -1.2047   -0.6935 C   0  0  0  0  0  0
   -1.7928   -0.9698    0.5931 C   0  0  1  0  0  0
   -1.5077   -1.8082    1.8441 C   0  0  0  0  0  0
   -2.8712    0.0894    0.9257 C   0  0  0  0  0  0
   -3.4724    0.7066   -0.3096 C   0  0  0  0  0  0
   -3.0038    2.0427   -0.8267 C   0  0  0  0  0  0
   -4.3553    1.9225   -0.1808 C   0  0  0  0  0  0
    2.4325   -0.4055    0.2940 C   0  0  0  0  0  0
    4.1679   -0.2672    2.3043 H   0  0  0  0  0  0
    4.3607    1.4226    1.7782 H   0  0  0  0  0  0
    5.5736    0.1901    1.3426 H   0  0  0  0  0  0
    5.2987    0.7695   -1.1028 H   0  0  0  0  0  0
    4.0087    0.3442   -3.1506 H   0  0  0  0  0  0
   -0.2399   -1.3438   -1.6491 H   0  0  0  0  0  0
    0.3820   -2.2022   -0.2514 H   0  0  0  0  0  0
   -2.1838   -1.6237   -0.1964 H   0  0  0  0  0  0
   -2.4182   -2.3137    2.1853 H   0  0  0  0  0  0
   -0.7604   -2.5859    1.6507 H   0  0  0  0  0  0
   -1.1393   -1.1831    2.6663 H   0  0  0  0  0  0
   -3.6895   -0.3913    1.4768 H   0  0  0  0  0  0
   -2.4609    0.8600    1.5931 H   0  0  0  0  0  0
   -3.7851   -0.0409   -1.0306 H   0  0  0  0  0  0
   -2.9696    2.1881   -1.9011 H   0  0  0  0  0  0
   -2.2324    2.5763   -0.2836 H   0  0  0  0  0  0
   -5.2309    1.9818   -0.8197 H   0  0  0  0  0  0
   -4.4912    2.3657    0.7991 H   0  0  0  0  0  0
    1.9858   -0.6043    1.2687 H   0  0  0  0  0  0
   -0.5424   -0.3047    0.1552 N   0  3  0  0  0  0
    0.0041   -0.0396    0.9830 H   0  0  0  0  0  0
   -0.7808    0.5375   -0.3816 H   0  0  0  0  0  0
  1  2  1  0  0  0
  1 16  1  0  0  0
  1 17  1  0  0  0
  1 18  1  0  0  0
  2  3  2  0  0  0
  2 15  1  0  0  0
  3  4  1  0  0  0
  3 19  1  0  0  0
  4  5  2  0  0  0
  4 20  1  0  0  0
  5  6  1  0  0  0
  5  7  1  0  0  0
  7  8  1  0  0  0
  7 15  2  0  0  0
  8 21  1  0  0  0
  8 22  1  0  0  0
  8 35  1  0  0  0
  9 10  1  0  0  0
  9 11  1  0  0  0
  9 23  1  0  0  0
  9 35  1  0  0  0
 10 24  1  0  0  0
 10 25  1  0  0  0
 10 26  1  0  0  0
 11 12  1  0  0  0
 11 27  1  0  0  0
 11 28  1  0  0  0
 12 13  1  0  0  0
 12 14  1  0  0  0
 12 29  1  0  0  0
 13 14  1  0  0  0
 13 30  1  0  0  0
 13 31  1  0  0  0
 14 32  1  0  0  0
 14 33  1  0  0  0
 15 34  1  0  0  0
 35 36  1  0  0  0
 35 37  1  0  0  0
M  CHG  1  35   1
M  END
> <energy>
45.3972

> <chiral flag>
0

> <version>
0

> <i_ionizer_Ion_state_n>
1

> <i_ionizer_Tot_Q>
1

> <s_ionizer_Ion_centers>
35

> <s_ionizer_Ion_types>
N5

> <s_ionizer_Ion_ctrs_in>
9

> <r_ionizer_Ionization_penalty>
0.000148807

> <r_ionizer_Ionization_penalty_charging>
0.000148807

> <r_ionizer_Ionization_penalty_neutral>
0

$$$$
ZINC001258454735
                    3D
 Structure written by MMmdl.
 37 39  0  0  1  0            999 V2000
   -2.6517    1.6798    1.1157 C   0  0  0  0  0  0
   -2.4101    0.6668   -0.0072 C   0  0  2  0  0  0
   -1.9003   -0.6817    0.5549 C   0  0  0  0  0  0
   -2.1508   -1.8292   -0.3904 C   0  0  0  0  0  0
   -1.0560   -2.3946   -1.2585 C   0  0  0  0  0  0
   -1.5618   -3.1819   -0.0831 C   0  0  0  0  0  0
   -0.5248    2.0915   -0.8848 C   0  0  0  0  0  0
    0.7369    1.4715   -0.3310 C   0  0  0  0  0  0
    1.1576    1.7660    0.9787 C   0  0  0  0  0  0
    2.3390    1.2247    1.5141 C   0  0  0  0  0  0
    3.1173    0.3759    0.7116 C   0  0  0  0  0  0
    4.3315   -0.3445    0.8699 C   0  0  0  0  0  0
    4.5571   -0.9919   -0.3248 C   0  0  0  0  0  0
    3.5616   -0.7241   -1.2096 O   0  0  0  0  0  0
    2.6836    0.1066   -0.5806 C   0  0  0  0  0  0
    1.5175    0.6256   -1.1401 C   0  0  0  0  0  0
   -3.0283    2.6288    0.7167 H   0  0  0  0  0  0
   -3.4094    1.3014    1.8113 H   0  0  0  0  0  0
   -1.7484    1.8780    1.6987 H   0  0  0  0  0  0
   -3.4043    0.4724   -0.4313 H   0  0  0  0  0  0
   -0.8402   -0.6186    0.8267 H   0  0  0  0  0  0
   -2.4426   -0.9079    1.4828 H   0  0  0  0  0  0
   -3.1614   -1.8222   -0.7860 H   0  0  0  0  0  0
   -1.3222   -2.7434   -2.2505 H   0  0  0  0  0  0
   -0.0568   -1.9818   -1.1866 H   0  0  0  0  0  0
   -2.1682   -4.0583   -0.2823 H   0  0  0  0  0  0
   -0.9068   -3.2817    0.7752 H   0  0  0  0  0  0
   -0.2591    2.5589   -1.8417 H   0  0  0  0  0  0
   -0.8534    2.9320   -0.2651 H   0  0  0  0  0  0
    0.5648    2.4340    1.6032 H   0  0  0  0  0  0
    2.6408    1.4691    2.5285 H   0  0  0  0  0  0
    4.9627   -0.3869    1.7459 H   0  0  0  0  0  0
    5.3373   -1.6465   -0.6863 H   0  0  0  0  0  0
    1.2395    0.3855   -2.1592 H   0  0  0  0  0  0
   -1.6289    1.1375   -1.2047 N   0  3  0  0  0  0
   -1.2199    0.3158   -1.6648 H   0  0  0  0  0  0
   -2.2785    1.6028   -1.8495 H   0  0  0  0  0  0
  1  2  1  0  0  0
  1 17  1  0  0  0
  1 18  1  0  0  0
  1 19  1  0  0  0
  2  3  1  0  0  0
  2 20  1  0  0  0
  2 35  1  0  0  0
  3  4  1  0  0  0
  3 21  1  0  0  0
  3 22  1  0  0  0
  4  5  1  0  0  0
  4  6  1  0  0  0
  4 23  1  0  0  0
  5  6  1  0  0  0
  5 24  1  0  0  0
  5 25  1  0  0  0
  6 26  1  0  0  0
  6 27  1  0  0  0
  7  8  1  0  0  0
  7 28  1  0  0  0
  7 29  1  0  0  0
  7 35  1  0  0  0
  8  9  2  0  0  0
  8 16  1  0  0  0
  9 10  1  0  0  0
  9 30  1  0  0  0
 10 11  2  0  0  0
 10 31  1  0  0  0
 11 12  1  0  0  0
 11 15  1  0  0  0
 12 13  2  0  0  0
 12 32  1  0  0  0
 13 14  1  0  0  0
 13 33  1  0  0  0
 14 15  1  0  0  0
 15 16  2  0  0  0
 16 34  1  0  0  0
 35 36  1  0  0  0
 35 37  1  0  0  0
M  CHG  1  35   1
M  END
> <energy>
45.9078

> <chiral flag>
0

> <version>
0

> <i_ionizer_Ion_state_n>
1

> <i_ionizer_Tot_Q>
1

> <s_ionizer_Ion_centers>
35

> <s_ionizer_Ion_types>
N5

> <s_ionizer_Ion_ctrs_in>
7

> <r_ionizer_Ionization_penalty>
0.000148807

> <r_ionizer_Ionization_penalty_charging>
0.000148807

> <r_ionizer_Ionization_penalty_neutral>
0

$$$$
ZINC001258454736
                    3D
 Structure written by MMmdl.
 37 39  0  0  1  0            999 V2000
   -2.0168    1.5938    1.7318 C   0  0  0  0  0  0
   -1.3603    1.0941    0.4381 C   0  0  1  0  0  0
   -2.4293    0.6371   -0.5826 C   0  0  0  0  0  0
   -3.0698   -0.6665   -0.1839 C   0  0  0  0  0  0
   -2.3572   -1.9644   -0.4690 C   0  0  0  0  0  0
   -3.6064   -1.6122   -1.2281 C   0  0  0  0  0  0
    0.4377    1.8381   -1.0932 C   0  0  0  0  0  0
    1.4557    0.8077   -0.6556 C   0  0  0  0  0  0
    1.5820   -0.4028   -1.3600 C   0  0  0  0  0  0
    2.4998   -1.3893   -0.9669 C   0  0  0  0  0  0
    3.3019   -1.1529    0.1613 C   0  0  0  0  0  0
    4.3000   -1.8770    0.8678 C   0  0  0  0  0  0
    4.6951   -1.0744    1.9139 C   0  0  0  0  0  0
    4.0096    0.0990    1.9019 O   0  0  0  0  0  0
    3.1602    0.0526    0.8376 C   0  0  0  0  0  0
    2.2684    1.0567    0.4668 C   0  0  0  0  0  0
   -2.7296    2.4019    1.5345 H   0  0  0  0  0  0
   -1.2629    1.9725    2.4333 H   0  0  0  0  0  0
   -2.5508    0.7861    2.2433 H   0  0  0  0  0  0
   -0.7272    0.2429    0.7174 H   0  0  0  0  0  0
   -3.2105    1.4016   -0.6840 H   0  0  0  0  0  0
   -1.9793    0.5153   -1.5746 H   0  0  0  0  0  0
   -3.6400   -0.5878    0.7359 H   0  0  0  0  0  0
   -2.4129   -2.7454    0.2806 H   0  0  0  0  0  0
   -1.4152   -1.9321   -1.0052 H   0  0  0  0  0  0
   -4.5103   -2.1646   -0.9967 H   0  0  0  0  0  0
   -3.5046   -1.3506   -2.2746 H   0  0  0  0  0  0
   -0.0749    1.5105   -2.0042 H   0  0  0  0  0  0
    0.9896    2.7433   -1.3779 H   0  0  0  0  0  0
    0.9520   -0.5963   -2.2260 H   0  0  0  0  0  0
    2.5783   -2.3195   -1.5208 H   0  0  0  0  0  0
    4.6757   -2.8646    0.6421 H   0  0  0  0  0  0
    5.4120   -1.1861    2.7141 H   0  0  0  0  0  0
    2.1898    1.9749    1.0364 H   0  0  0  0  0  0
   -0.5299    2.2405   -0.0404 N   0  3  0  0  0  0
   -1.1525    2.9617   -0.4231 H   0  0  0  0  0  0
   -0.0090    2.6257    0.7562 H   0  0  0  0  0  0
  1  2  1  0  0  0
  1 17  1  0  0  0
  1 18  1  0  0  0
  1 19  1  0  0  0
  2  3  1  0  0  0
  2 20  1  0  0  0
  2 35  1  0  0  0
  3  4  1  0  0  0
  3 21  1  0  0  0
  3 22  1  0  0  0
  4  5  1  0  0  0
  4  6  1  0  0  0
  4 23  1  0  0  0
  5  6  1  0  0  0
  5 24  1  0  0  0
  5 25  1  0  0  0
  6 26  1  0  0  0
  6 27  1  0  0  0
  7  8  1  0  0  0
  7 28  1  0  0  0
  7 29  1  0  0  0
  7 35  1  0  0  0
  8  9  2  0  0  0
  8 16  1  0  0  0
  9 10  1  0  0  0
  9 30  1  0  0  0
 10 11  2  0  0  0
 10 31  1  0  0  0
 11 12  1  0  0  0
 11 15  1  0  0  0
 12 13  2  0  0  0
 12 32  1  0  0  0
 13 14  1  0  0  0
 13 33  1  0  0  0
 14 15  1  0  0  0
 15 16  2  0  0  0
 16 34  1  0  0  0
 35 36  1  0  0  0
 35 37  1  0  0  0
M  CHG  1  35   1
M  END
> <energy>
42.7085

> <chiral flag>
0

> <version>
0

> <i_ionizer_Ion_state_n>
1

> <i_ionizer_Tot_Q>
1

> <s_ionizer_Ion_centers>
35

> <s_ionizer_Ion_types>
N5

> <s_ionizer_Ion_ctrs_in>
7

> <r_ionizer_Ionization_penalty>
0.000148807

> <r_ionizer_Ionization_penalty_charging>
0.000148807

> <r_ionizer_Ionization_penalty_neutral>
0

$$$$
ZINC001258454789
                    3D
 Structure written by MMmdl.
 44 45  0  0  1  0            999 V2000
   -0.6370    2.7633   -1.2909 C   0  0  0  0  0  0
   -0.9646    1.5216   -1.9140 O   0  0  0  0  0  0
   -1.7966    0.7273   -1.1714 C   0  0  0  0  0  0
   -3.0048    1.2621   -0.6899 C   0  0  0  0  0  0
   -3.8875    0.4871    0.0549 C   0  0  0  0  0  0
   -3.5729   -0.8373    0.3211 C   0  0  0  0  0  0
   -2.3839   -1.3813   -0.1764 C   0  0  0  0  0  0
   -1.4678   -0.6280   -0.9554 C   0  0  0  0  0  0
   -0.1846   -1.3220   -1.4725 C   0  0  0  0  0  0
   -0.5712   -2.6847   -2.1320 C   0  0  0  0  0  0
    0.5921   -0.5994   -2.6011 C   0  0  0  0  0  0
    1.5525   -0.6544    0.2537 C   0  0  2  0  0  0
    2.8314   -1.3701    0.7088 C   0  0  0  0  0  0
    0.8838    0.0621    1.4470 C   0  0  0  0  0  0
    1.6529    1.2809    1.8870 C   0  0  0  0  0  0
    2.5907    1.2341    3.0677 C   0  0  0  0  0  0
    1.2796    1.9622    3.1775 C   0  0  0  0  0  0
   -1.4087    3.5098   -1.5014 H   0  0  0  0  0  0
   -0.4822    2.6563   -0.2112 H   0  0  0  0  0  0
    0.3014    3.1207   -1.7279 H   0  0  0  0  0  0
   -3.2791    2.2884   -0.9127 H   0  0  0  0  0  0
   -4.8201    0.9115    0.4189 H   0  0  0  0  0  0
   -4.2555   -1.4541    0.9031 H   0  0  0  0  0  0
   -2.1817   -2.4246    0.0557 H   0  0  0  0  0  0
   -0.9786   -3.4115   -1.4201 H   0  0  0  0  0  0
   -1.3174   -2.5385   -2.9235 H   0  0  0  0  0  0
    0.3043   -3.1648   -2.5908 H   0  0  0  0  0  0
    1.4422   -1.2029   -2.9473 H   0  0  0  0  0  0
    1.0036    0.3690   -2.3099 H   0  0  0  0  0  0
   -0.0556   -0.4296   -3.4702 H   0  0  0  0  0  0
    1.8689    0.0903   -0.4806 H   0  0  0  0  0  0
    3.3217   -1.8669   -0.1374 H   0  0  0  0  0  0
    2.6236   -2.1322    1.4696 H   0  0  0  0  0  0
    3.5533   -0.6643    1.1298 H   0  0  0  0  0  0
   -0.1137    0.4093    1.1644 H   0  0  0  0  0  0
    0.7483   -0.6343    2.2851 H   0  0  0  0  0  0
    1.9151    1.9236    1.0533 H   0  0  0  0  0  0
    3.4977    1.8292    3.0252 H   0  0  0  0  0  0
    2.7039    0.3044    3.6133 H   0  0  0  0  0  0
    0.5015    1.5196    3.7899 H   0  0  0  0  0  0
    1.2958    3.0467    3.1961 H   0  0  0  0  0  0
    0.7158   -1.7571   -0.3305 N   0  3  0  0  0  0
    0.1251   -2.1419    0.4160 H   0  0  0  0  0  0
    1.3466   -2.4884   -0.6791 H   0  0  0  0  0  0
  1  2  1  0  0  0
  1 18  1  0  0  0
  1 19  1  0  0  0
  1 20  1  0  0  0
  2  3  1  0  0  0
  3  4  2  0  0  0
  3  8  1  0  0  0
  4  5  1  0  0  0
  4 21  1  0  0  0
  5  6  2  0  0  0
  5 22  1  0  0  0
  6  7  1  0  0  0
  6 23  1  0  0  0
  7  8  2  0  0  0
  7 24  1  0  0  0
  8  9  1  0  0  0
  9 10  1  0  0  0
  9 11  1  0  0  0
  9 42  1  0  0  0
 10 25  1  0  0  0
 10 26  1  0  0  0
 10 27  1  0  0  0
 11 28  1  0  0  0
 11 29  1  0  0  0
 11 30  1  0  0  0
 12 13  1  0  0  0
 12 14  1  0  0  0
 12 31  1  0  0  0
 12 42  1  0  0  0
 13 32  1  0  0  0
 13 33  1  0  0  0
 13 34  1  0  0  0
 14 15  1  0  0  0
 14 35  1  0  0  0
 14 36  1  0  0  0
 15 16  1  0  0  0
 15 17  1  0  0  0
 15 37  1  0  0  0
 16 17  1  0  0  0
 16 38  1  0  0  0
 16 39  1  0  0  0
 17 40  1  0  0  0
 17 41  1  0  0  0
 42 43  1  0  0  0
 42 44  1  0  0  0
M  CHG  1  42   1
M  END
> <energy>
66.825

> <chiral flag>
0

> <version>
0

> <i_ionizer_Ion_state_n>
1

> <i_ionizer_Tot_Q>
1

> <s_ionizer_Ion_centers>
42

> <s_ionizer_Ion_types>
N5

> <s_ionizer_Ion_ctrs_in>
12

> <r_ionizer_Ionization_penalty>
0.000148807

> <r_ionizer_Ionization_penalty_charging>
0.000148807

> <r_ionizer_Ionization_penalty_neutral>
0

$$$$
ZINC001258454790
                    3D
 Structure written by MMmdl.
 44 45  0  0  1  0            999 V2000
    0.1059    2.2846    2.3357 C   0  0  0  0  0  0
    0.0102    0.8828    2.5926 O   0  0  0  0  0  0
   -1.0020    0.2854    1.8872 C   0  0  0  0  0  0
   -2.3127    0.7615    2.0651 C   0  0  0  0  0  0
   -3.3778    0.2043    1.3657 C   0  0  0  0  0  0
   -3.1390   -0.8327    0.4780 C   0  0  0  0  0  0
   -1.8409   -1.3286    0.3241 C   0  0  0  0  0  0
   -0.7354   -0.8139    1.0463 C   0  0  0  0  0  0
    0.6515   -1.4710    0.8402 C   0  0  0  0  0  0
    0.4940   -3.0154    0.9992 C   0  0  0  0  0  0
    1.7448   -1.1016    1.8676 C   0  0  0  0  0  0
    1.5178    0.1030   -0.9212 C   0  0  1  0  0  0
    3.0437    0.2778   -0.8925 C   0  0  0  0  0  0
    1.0324    0.4116   -2.3583 C   0  0  0  0  0  0
   -0.4625    0.4878   -2.4731 C   0  0  0  0  0  0
   -1.1980    1.7413   -2.0797 C   0  0  0  0  0  0
   -1.0981    1.3542   -3.5288 C   0  0  0  0  0  0
    1.1366    2.5916    2.5384 H   0  0  0  0  0  0
   -0.5508    2.8421    3.0106 H   0  0  0  0  0  0
   -0.1178    2.5328    1.2919 H   0  0  0  0  0  0
   -2.5117    1.5708    2.7619 H   0  0  0  0  0  0
   -4.3848    0.5837    1.5061 H   0  0  0  0  0  0
   -3.9558   -1.2642   -0.0929 H   0  0  0  0  0  0
   -1.6935   -2.1303   -0.3973 H   0  0  0  0  0  0
    1.4639   -3.5273    0.9413 H   0  0  0  0  0  0
    0.0460   -3.2656    1.9689 H   0  0  0  0  0  0
   -0.1329   -3.4671    0.2220 H   0  0  0  0  0  0
    1.4126   -1.3138    2.8913 H   0  0  0  0  0  0
    2.0386   -0.0500    1.8249 H   0  0  0  0  0  0
    2.6602   -1.6849    1.7026 H   0  0  0  0  0  0
    1.0671    0.8382   -0.2462 H   0  0  0  0  0  0
    3.4623    0.1087    0.1028 H   0  0  0  0  0  0
    3.3170    1.2973   -1.1883 H   0  0  0  0  0  0
    3.5377   -0.4136   -1.5848 H   0  0  0  0  0  0
    1.4026   -0.3511   -3.0562 H   0  0  0  0  0  0
    1.4667    1.3662   -2.6846 H   0  0  0  0  0  0
   -0.9336   -0.4674   -2.2746 H   0  0  0  0  0  0
   -2.1546    1.6266   -1.5832 H   0  0  0  0  0  0
   -0.6224    2.5926   -1.7378 H   0  0  0  0  0  0
   -1.9916    0.9811   -4.0173 H   0  0  0  0  0  0
   -0.4548    1.9445   -4.1706 H   0  0  0  0  0  0
    1.1427   -1.3091   -0.5824 N   0  3  0  0  0  0
    1.9680   -1.9060   -0.7126 H   0  0  0  0  0  0
    0.3978   -1.6109   -1.2213 H   0  0  0  0  0  0
  1  2  1  0  0  0
  1 18  1  0  0  0
  1 19  1  0  0  0
  1 20  1  0  0  0
  2  3  1  0  0  0
  3  4  2  0  0  0
  3  8  1  0  0  0
  4  5  1  0  0  0
  4 21  1  0  0  0
  5  6  2  0  0  0
  5 22  1  0  0  0
  6  7  1  0  0  0
  6 23  1  0  0  0
  7  8  2  0  0  0
  7 24  1  0  0  0
  8  9  1  0  0  0
  9 10  1  0  0  0
  9 11  1  0  0  0
  9 42  1  0  0  0
 10 25  1  0  0  0
 10 26  1  0  0  0
 10 27  1  0  0  0
 11 28  1  0  0  0
 11 29  1  0  0  0
 11 30  1  0  0  0
 12 13  1  0  0  0
 12 14  1  0  0  0
 12 31  1  0  0  0
 12 42  1  0  0  0
 13 32  1  0  0  0
 13 33  1  0  0  0
 13 34  1  0  0  0
 14 15  1  0  0  0
 14 35  1  0  0  0
 14 36  1  0  0  0
 15 16  1  0  0  0
 15 17  1  0  0  0
 15 37  1  0  0  0
 16 17  1  0  0  0
 16 38  1  0  0  0
 16 39  1  0  0  0
 17 40  1  0  0  0
 17 41  1  0  0  0
 42 43  1  0  0  0
 42 44  1  0  0  0
M  CHG  1  42   1
M  END
> <energy>
67.1319

> <chiral flag>
0

> <version>
0

> <i_ionizer_Ion_state_n>
1

> <i_ionizer_Tot_Q>
1

> <s_ionizer_Ion_centers>
42

> <s_ionizer_Ion_types>
N5

> <s_ionizer_Ion_ctrs_in>
12

> <r_ionizer_Ionization_penalty>
0.000148807

> <r_ionizer_Ionization_penalty_charging>
0.000148807

> <r_ionizer_Ionization_penalty_neutral>
0

$$$$
ZINC001258454819
                    3D
 Structure written by MMmdl.
 40 41  0  0  1  0            999 V2000
   -0.5290    2.7168   -0.7080 C   0  0  0  0  0  0
   -1.0518    2.1337    0.5786 C   0  0  0  0  0  0
   -1.1347    2.9678    1.7109 C   0  0  0  0  0  0
   -1.6136    2.4790    2.9260 C   0  0  0  0  0  0
   -2.0034    1.1524    3.0187 C   0  0  0  0  0  0
   -2.4720    0.6820    4.1829 F   0  0  0  0  0  0
   -1.9204    0.3059    1.9200 C   0  0  0  0  0  0
   -1.4448    0.7765    0.6787 C   0  0  0  0  0  0
   -1.4303   -0.1639   -0.5238 C   0  0  2  0  0  0
   -2.8453   -0.2402   -1.1164 C   0  0  0  0  0  0
    0.3967   -1.8238   -0.6323 C   0  0  2  0  0  0
    0.6246   -3.3270   -0.4209 C   0  0  0  0  0  0
    1.4843   -0.9930    0.0873 C   0  0  0  0  0  0
    2.8378   -1.1295   -0.5620 C   0  0  0  0  0  0
    3.8142    0.0192   -0.5246 C   0  0  0  0  0  0
    3.1540   -0.3633   -1.8207 C   0  0  0  0  0  0
   -1.2486    2.5616   -1.5180 H   0  0  0  0  0  0
    0.4272    2.2532   -0.9719 H   0  0  0  0  0  0
   -0.3625    3.7965   -0.6249 H   0  0  0  0  0  0
   -0.8300    4.0103    1.6505 H   0  0  0  0  0  0
   -1.6850    3.1226    3.7972 H   0  0  0  0  0  0
   -2.2352   -0.7271    2.0378 H   0  0  0  0  0  0
   -0.7833    0.2357   -1.3115 H   0  0  0  0  0  0
   -3.2055    0.7557   -1.3972 H   0  0  0  0  0  0
   -3.5658   -0.6628   -0.4063 H   0  0  0  0  0  0
   -2.8578   -0.8630   -2.0182 H   0  0  0  0  0  0
    0.4472   -1.6428   -1.7138 H   0  0  0  0  0  0
    0.6176   -3.5914    0.6428 H   0  0  0  0  0  0
    1.5825   -3.6445   -0.8437 H   0  0  0  0  0  0
   -0.1539   -3.9163   -0.9204 H   0  0  0  0  0  0
    1.5604   -1.2951    1.1398 H   0  0  0  0  0  0
    1.2112    0.0676    0.0856 H   0  0  0  0  0  0
    3.2575   -2.1211   -0.4432 H   0  0  0  0  0  0
    4.8674   -0.2086   -0.4048 H   0  0  0  0  0  0
    3.5093    0.9469   -0.0553 H   0  0  0  0  0  0
    2.4065    0.3114   -2.2214 H   0  0  0  0  0  0
    3.7545   -0.8580   -2.5756 H   0  0  0  0  0  0
   -0.9860   -1.5382   -0.1483 N   0  3  0  0  0  0
   -1.0052   -1.6260    0.8745 H   0  0  0  0  0  0
   -1.6311   -2.2211   -0.5626 H   0  0  0  0  0  0
  1  2  1  0  0  0
  1 17  1  0  0  0
  1 18  1  0  0  0
  1 19  1  0  0  0
  2  3  2  0  0  0
  2  8  1  0  0  0
  3  4  1  0  0  0
  3 20  1  0  0  0
  4  5  2  0  0  0
  4 21  1  0  0  0
  5  6  1  0  0  0
  5  7  1  0  0  0
  7  8  2  0  0  0
  7 22  1  0  0  0
  8  9  1  0  0  0
  9 10  1  0  0  0
  9 23  1  0  0  0
  9 38  1  0  0  0
 10 24  1  0  0  0
 10 25  1  0  0  0
 10 26  1  0  0  0
 11 12  1  0  0  0
 11 13  1  0  0  0
 11 27  1  0  0  0
 11 38  1  0  0  0
 12 28  1  0  0  0
 12 29  1  0  0  0
 12 30  1  0  0  0
 13 14  1  0  0  0
 13 31  1  0  0  0
 13 32  1  0  0  0
 14 15  1  0  0  0
 14 16  1  0  0  0
 14 33  1  0  0  0
 15 16  1  0  0  0
 15 34  1  0  0  0
 15 35  1  0  0  0
 16 36  1  0  0  0
 16 37  1  0  0  0
 38 39  1  0  0  0
 38 40  1  0  0  0
M  CHG  1  38   1
M  END
> <energy>
45.5526

> <chiral flag>
0

> <version>
0

> <i_ionizer_Ion_state_n>
1

> <i_ionizer_Tot_Q>
1

> <s_ionizer_Ion_centers>
38

> <s_ionizer_Ion_types>
N5

> <s_ionizer_Ion_ctrs_in>
11

> <r_ionizer_Ionization_penalty>
0.000148807

> <r_ionizer_Ionization_penalty_charging>
0.000148807

> <r_ionizer_Ionization_penalty_neutral>
0

$$$$
ZINC001258454821
                    3D
 Structure written by MMmdl.
 40 41  0  0  1  0            999 V2000
   -2.0603    2.1188   -0.3631 C   0  0  0  0  0  0
   -2.2111    0.8490    0.4359 C   0  0  0  0  0  0
   -2.8130    0.9348    1.7059 C   0  0  0  0  0  0
   -2.9915   -0.1999    2.4906 C   0  0  0  0  0  0
   -2.5748   -1.4290    2.0054 C   0  0  0  0  0  0
   -2.7458   -2.5243    2.7566 F   0  0  0  0  0  0
   -1.9842   -1.5444    0.7496 C   0  0  0  0  0  0
   -1.7943   -0.4130   -0.0654 C   0  0  0  0  0  0
   -1.1428   -0.5371   -1.4405 C   0  0  2  0  0  0
   -1.3296   -1.8864   -2.1555 C   0  0  0  0  0  0
    1.2097   -0.8916   -0.6611 C   0  0  1  0  0  0
    2.4603   -1.1714   -1.5054 C   0  0  0  0  0  0
    1.5833   -0.2021    0.6721 C   0  0  0  0  0  0
    2.0677    1.2179    0.5412 C   0  0  0  0  0  0
    2.8458    1.8313    1.6791 C   0  0  0  0  0  0
    3.5270    1.5467    0.3706 C   0  0  0  0  0  0
   -2.7319    2.0969   -1.2272 H   0  0  0  0  0  0
   -2.3170    3.0003    0.2351 H   0  0  0  0  0  0
   -1.0281    2.2553   -0.6991 H   0  0  0  0  0  0
   -3.1462    1.8972    2.0887 H   0  0  0  0  0  0
   -3.4517   -0.1316    3.4710 H   0  0  0  0  0  0
   -1.6707   -2.5330    0.4342 H   0  0  0  0  0  0
   -1.6809    0.1664   -2.0887 H   0  0  0  0  0  0
   -0.9419   -1.8351   -3.1796 H   0  0  0  0  0  0
   -2.3928   -2.1475   -2.2179 H   0  0  0  0  0  0
   -0.8158   -2.7123   -1.6546 H   0  0  0  0  0  0
    0.7943   -1.8733   -0.4104 H   0  0  0  0  0  0
    2.2022   -1.7720   -2.3889 H   0  0  0  0  0  0
    3.2036   -1.7350   -0.9297 H   0  0  0  0  0  0
    2.9330   -0.2486   -1.8570 H   0  0  0  0  0  0
    0.7104   -0.1963    1.3349 H   0  0  0  0  0  0
    2.3466   -0.8059    1.1806 H   0  0  0  0  0  0
    1.3385    1.8567    0.0545 H   0  0  0  0  0  0
    3.1038    1.2091    2.5274 H   0  0  0  0  0  0
    2.6420    2.8655    1.9363 H   0  0  0  0  0  0
    4.2422    0.7336    0.3368 H   0  0  0  0  0  0
    3.7820    2.3896   -0.2638 H   0  0  0  0  0  0
    0.2776   -0.0597   -1.4900 N   0  3  0  0  0  0
    0.5969   -0.0860   -2.4655 H   0  0  0  0  0  0
    0.3092    0.9070   -1.1454 H   0  0  0  0  0  0
  1  2  1  0  0  0
  1 17  1  0  0  0
  1 18  1  0  0  0
  1 19  1  0  0  0
  2  3  2  0  0  0
  2  8  1  0  0  0
  3  4  1  0  0  0
  3 20  1  0  0  0
  4  5  2  0  0  0
  4 21  1  0  0  0
  5  6  1  0  0  0
  5  7  1  0  0  0
  7  8  2  0  0  0
  7 22  1  0  0  0
  8  9  1  0  0  0
  9 10  1  0  0  0
  9 23  1  0  0  0
  9 38  1  0  0  0
 10 24  1  0  0  0
 10 25  1  0  0  0
 10 26  1  0  0  0
 11 12  1  0  0  0
 11 13  1  0  0  0
 11 27  1  0  0  0
 11 38  1  0  0  0
 12 28  1  0  0  0
 12 29  1  0  0  0
 12 30  1  0  0  0
 13 14  1  0  0  0
 13 31  1  0  0  0
 13 32  1  0  0  0
 14 15  1  0  0  0
 14 16  1  0  0  0
 14 33  1  0  0  0
 15 16  1  0  0  0
 15 34  1  0  0  0
 15 35  1  0  0  0
 16 36  1  0  0  0
 16 37  1  0  0  0
 38 39  1  0  0  0
 38 40  1  0  0  0
M  CHG  1  38   1
M  END
> <energy>
49.5687

> <chiral flag>
0

> <version>
0

> <i_ionizer_Ion_state_n>
1

> <i_ionizer_Tot_Q>
1

> <s_ionizer_Ion_centers>
38

> <s_ionizer_Ion_types>
N5

> <s_ionizer_Ion_ctrs_in>
11

> <r_ionizer_Ionization_penalty>
0.000148807

> <r_ionizer_Ionization_penalty_charging>
0.000148807

> <r_ionizer_Ionization_penalty_neutral>
0

$$$$
ZINC001258454828
                    3D
 Structure written by MMmdl.
 41 43  0  0  1  0            999 V2000
    0.1578   -0.2188    2.7067 C   0  0  0  0  0  0
    1.0526   -0.5421    1.4990 C   0  0  2  0  0  0
    1.6341    0.7528    0.8952 C   0  0  0  0  0  0
    2.7857    0.5412   -0.0506 C   0  0  0  0  0  0
    3.8837    1.5767   -0.1198 C   0  0  0  0  0  0
    2.9327    1.4292   -1.2670 C   0  0  0  0  0  0
   -0.4340   -1.1204   -0.4924 C   0  0  0  0  0  0
   -1.6027   -0.0997   -0.1275 C   0  0  0  0  0  0
   -1.6426    1.2282   -0.6152 C   0  0  0  0  0  0
   -2.6732    2.1190   -0.2900 C   0  0  0  0  0  0
   -3.7209    1.7029    0.5225 C   0  0  0  0  0  0
   -3.7249    0.4019    0.9997 C   0  0  0  0  0  0
   -4.7252   -0.0067    1.7922 F   0  0  0  0  0  0
   -2.6951   -0.4836    0.6814 C   0  0  0  0  0  0
    0.4468   -0.9613   -1.7712 C   0  0  0  0  0  0
   -0.5555   -1.8678   -2.5154 C   0  0  0  0  0  0
   -0.9103   -2.4796   -1.1508 C   0  0  0  0  0  0
   -0.6465    0.4733    2.4463 H   0  0  0  0  0  0
   -0.2846   -1.1264    3.1346 H   0  0  0  0  0  0
    0.7498    0.2478    3.5033 H   0  0  0  0  0  0
    1.9153   -1.0798    1.9205 H   0  0  0  0  0  0
    0.8554    1.3452    0.4140 H   0  0  0  0  0  0
    1.9969    1.3741    1.7264 H   0  0  0  0  0  0
    3.0777   -0.4971   -0.1449 H   0  0  0  0  0  0
    3.8028    2.4644    0.4943 H   0  0  0  0  0  0
    4.9012    1.2228   -0.2537 H   0  0  0  0  0  0
    3.3019    0.9780   -2.1835 H   0  0  0  0  0  0
    2.1992    2.2132   -1.4280 H   0  0  0  0  0  0
   -0.8380    1.5928   -1.2552 H   0  0  0  0  0  0
   -2.6501    3.1360   -0.6701 H   0  0  0  0  0  0
   -4.5301    2.3764    0.7875 H   0  0  0  0  0  0
   -2.7451   -1.4933    1.0823 H   0  0  0  0  0  0
    1.4478   -1.4088   -1.7232 H   0  0  0  0  0  0
    0.5439    0.0402   -2.1950 H   0  0  0  0  0  0
   -1.3810   -1.3247   -2.9855 H   0  0  0  0  0  0
   -0.1189   -2.5602   -3.2400 H   0  0  0  0  0  0
   -0.3090   -3.3690   -0.9107 H   0  0  0  0  0  0
   -1.9646   -2.7466   -1.0241 H   0  0  0  0  0  0
    0.4428   -1.6183    0.6324 N   0  3  0  0  0  0
    1.2078   -2.1652    0.2202 H   0  0  0  0  0  0
   -0.1265   -2.2254    1.2337 H   0  0  0  0  0  0
  1  2  1  0  0  0
  1 18  1  0  0  0
  1 19  1  0  0  0
  1 20  1  0  0  0
  2  3  1  0  0  0
  2 21  1  0  0  0
  2 39  1  0  0  0
  3  4  1  0  0  0
  3 22  1  0  0  0
  3 23  1  0  0  0
  4  5  1  0  0  0
  4  6  1  0  0  0
  4 24  1  0  0  0
  5  6  1  0  0  0
  5 25  1  0  0  0
  5 26  1  0  0  0
  6 27  1  0  0  0
  6 28  1  0  0  0
  7  8  1  0  0  0
  7 15  1  0  0  0
  7 17  1  0  0  0
  7 39  1  0  0  0
  8  9  2  0  0  0
  8 14  1  0  0  0
  9 10  1  0  0  0
  9 29  1  0  0  0
 10 11  2  0  0  0
 10 30  1  0  0  0
 11 12  1  0  0  0
 11 31  1  0  0  0
 12 13  1  0  0  0
 12 14  2  0  0  0
 14 32  1  0  0  0
 15 16  1  0  0  0
 15 33  1  0  0  0
 15 34  1  0  0  0
 16 17  1  0  0  0
 16 35  1  0  0  0
 16 36  1  0  0  0
 17 37  1  0  0  0
 17 38  1  0  0  0
 39 40  1  0  0  0
 39 41  1  0  0  0
M  CHG  1  39   1
M  END
> <energy>
65.439

> <chiral flag>
0

> <version>
0

> <i_ionizer_Ion_state_n>
1

> <i_ionizer_Tot_Q>
1

> <s_ionizer_Ion_centers>
39

> <s_ionizer_Ion_types>
N5

> <s_ionizer_Ion_ctrs_in>
7

> <r_ionizer_Ionization_penalty>
0.000148807

> <r_ionizer_Ionization_penalty_charging>
0.000148807

> <r_ionizer_Ionization_penalty_neutral>
0

$$$$
ZINC001258454829
                    3D
 Structure written by MMmdl.
 41 43  0  0  1  0            999 V2000
   -0.8960   -2.1891   -0.3799 C   0  0  0  0  0  0
   -1.0691   -0.6978   -0.0616 C   0  0  1  0  0  0
   -2.5532   -0.3563    0.2094 C   0  0  0  0  0  0
   -3.3755   -0.2790   -1.0494 C   0  0  0  0  0  0
   -4.6437    0.5360   -1.0607 C   0  0  0  0  0  0
   -3.4470    1.0000   -1.8442 C   0  0  0  0  0  0
    0.8114    0.5730    0.9210 C   0  0  0  0  0  0
    2.0850   -0.1755    0.3323 C   0  0  0  0  0  0
    3.0233   -0.8253    1.1662 C   0  0  0  0  0  0
    4.1537   -1.4826    0.6627 C   0  0  0  0  0  0
    4.3776   -1.5231   -0.7073 C   0  0  0  0  0  0
    3.4708   -0.9087   -1.5542 C   0  0  0  0  0  0
    3.6714   -0.9517   -2.8786 F   0  0  0  0  0  0
    2.3500   -0.2469   -1.0517 C   0  0  0  0  0  0
    0.2991    1.9126    0.3017 C   0  0  0  0  0  0
    1.0905    2.6555    1.3920 C   0  0  0  0  0  0
    0.9632    1.3868    2.2550 C   0  0  0  0  0  0
   -1.4336   -2.4641   -1.2923 H   0  0  0  0  0  0
    0.1591   -2.4377   -0.5331 H   0  0  0  0  0  0
   -1.2746   -2.8174    0.4333 H   0  0  0  0  0  0
   -0.7242   -0.1287   -0.9333 H   0  0  0  0  0  0
   -2.9986   -1.1031    0.8792 H   0  0  0  0  0  0
   -2.6182    0.6074    0.7307 H   0  0  0  0  0  0
   -3.4013   -1.2165   -1.5920 H   0  0  0  0  0  0
   -4.9139    1.0954   -0.1722 H   0  0  0  0  0  0
   -5.4952    0.1467   -1.6084 H   0  0  0  0  0  0
   -3.4886    0.9277   -2.9251 H   0  0  0  0  0  0
   -2.9159    1.8726   -1.4784 H   0  0  0  0  0  0
    2.8704   -0.8185    2.2452 H   0  0  0  0  0  0
    4.8516   -1.9613    1.3443 H   0  0  0  0  0  0
    5.2434   -2.0319   -1.1177 H   0  0  0  0  0  0
    1.6698    0.2162   -1.7604 H   0  0  0  0  0  0
    0.6157    2.1369   -0.7201 H   0  0  0  0  0  0
   -0.7796    2.0930    0.3703 H   0  0  0  0  0  0
    0.6129    3.5525    1.7938 H   0  0  0  0  0  0
    2.1197    2.8976    1.1070 H   0  0  0  0  0  0
    0.0786    1.4036    2.9062 H   0  0  0  0  0  0
    1.8351    1.1752    2.8813 H   0  0  0  0  0  0
   -0.3114   -0.3721    1.1837 N   0  3  0  0  0  0
   -0.9539    0.0559    1.8607 H   0  0  0  0  0  0
    0.0707   -1.2405    1.5763 H   0  0  0  0  0  0
  1  2  1  0  0  0
  1 18  1  0  0  0
  1 19  1  0  0  0
  1 20  1  0  0  0
  2  3  1  0  0  0
  2 21  1  0  0  0
  2 39  1  0  0  0
  3  4  1  0  0  0
  3 22  1  0  0  0
  3 23  1  0  0  0
  4  5  1  0  0  0
  4  6  1  0  0  0
  4 24  1  0  0  0
  5  6  1  0  0  0
  5 25  1  0  0  0
  5 26  1  0  0  0
  6 27  1  0  0  0
  6 28  1  0  0  0
  7  8  1  0  0  0
  7 15  1  0  0  0
  7 17  1  0  0  0
  7 39  1  0  0  0
  8  9  2  0  0  0
  8 14  1  0  0  0
  9 10  1  0  0  0
  9 29  1  0  0  0
 10 11  2  0  0  0
 10 30  1  0  0  0
 11 12  1  0  0  0
 11 31  1  0  0  0
 12 13  1  0  0  0
 12 14  2  0  0  0
 14 32  1  0  0  0
 15 16  1  0  0  0
 15 33  1  0  0  0
 15 34  1  0  0  0
 16 17  1  0  0  0
 16 35  1  0  0  0
 16 36  1  0  0  0
 17 37  1  0  0  0
 17 38  1  0  0  0
 39 40  1  0  0  0
 39 41  1  0  0  0
M  CHG  1  39   1
M  END
> <energy>
56.6219

> <chiral flag>
0

> <version>
0

> <i_ionizer_Ion_state_n>
1

> <i_ionizer_Tot_Q>
1

> <s_ionizer_Ion_centers>
39

> <s_ionizer_Ion_types>
N5

> <s_ionizer_Ion_ctrs_in>
7

> <r_ionizer_Ionization_penalty>
0.000148807

> <r_ionizer_Ionization_penalty_charging>
0.000148807

> <r_ionizer_Ionization_penalty_neutral>
0

$$$$
ZINC001258454883
                    3D
 Structure written by MMmdl.
 44 45  0  0  1  0            999 V2000
    1.9753    1.4059    3.6795 C   0  0  0  0  0  0
    2.6099    0.8425    2.4189 C   0  0  0  0  0  0
    2.6865   -0.5827    2.5132 O   0  0  0  0  0  0
    2.2584   -1.1256    1.3297 C   0  0  0  0  0  0
    3.1278   -1.2350    0.2467 C   0  0  0  0  0  0
    2.6428   -1.6313   -0.9844 C   0  0  0  0  0  0
    1.2893   -1.9407   -1.1313 C   0  0  0  0  0  0
    0.4126   -1.8725   -0.0299 C   0  0  0  0  0  0
   -1.0614   -2.1414   -0.2680 C   0  0  1  0  0  0
   -1.8377   -2.6133    0.9681 C   0  0  0  0  0  0
   -1.7294    0.2856   -0.3641 C   0  0  2  0  0  0
   -2.7498    0.2937    0.7948 C   0  0  0  0  0  0
   -2.0734    1.4156   -1.3739 C   0  0  0  0  0  0
   -1.1646    1.5041   -2.6098 C   0  0  0  0  0  0
    0.3268    1.8832   -2.8546 C   0  0  0  0  0  0
   -0.7448    2.8876   -3.0844 C   0  0  0  0  0  0
    0.9101   -1.4764    1.2021 C   0  0  0  0  0  0
    2.6708    1.3305    4.5134 H   0  0  0  0  0  0
    1.0724    0.8534    3.9518 H   0  0  0  0  0  0
    1.7234    2.4627    3.5408 H   0  0  0  0  0  0
    3.6296    1.2258    2.3062 H   0  0  0  0  0  0
    2.0208    1.1836    1.5516 H   0  0  0  0  0  0
    4.1732   -0.9768    0.3678 H   0  0  0  0  0  0
    3.2936   -1.6729   -1.8568 H   0  0  0  0  0  0
    0.9119   -2.2206   -2.1054 H   0  0  0  0  0  0
   -1.0982   -3.0172   -0.9364 H   0  0  0  0  0  0
   -1.4452   -3.5674    1.3376 H   0  0  0  0  0  0
   -2.9027   -2.7730    0.7477 H   0  0  0  0  0  0
   -1.7798   -1.9393    1.8192 H   0  0  0  0  0  0
   -0.7589    0.5471    0.0319 H   0  0  0  0  0  0
   -3.5700   -0.4205    0.6477 H   0  0  0  0  0  0
   -3.2173    1.2688    0.9724 H   0  0  0  0  0  0
   -2.2427    0.0449    1.7278 H   0  0  0  0  0  0
   -2.1743    2.3793   -0.8589 H   0  0  0  0  0  0
   -3.1064    1.2445   -1.7248 H   0  0  0  0  0  0
   -1.6931    0.9429   -3.3839 H   0  0  0  0  0  0
    0.7822    1.3857   -3.7052 H   0  0  0  0  0  0
    1.0273    2.2781   -2.0931 H   0  0  0  0  0  0
   -0.8703    3.2090   -4.1077 H   0  0  0  0  0  0
   -0.7432    3.6746   -2.3540 H   0  0  0  0  0  0
    0.2774   -1.3758    2.0813 H   0  0  0  0  0  0
   -1.7101   -1.0452   -1.0731 N   0  3  0  0  0  0
   -1.1925   -0.9378   -1.9534 H   0  0  0  0  0  0
   -2.6782   -1.3200   -1.2767 H   0  0  0  0  0  0
  1  2  1  0  0  0
  1 18  1  0  0  0
  1 19  1  0  0  0
  1 20  1  0  0  0
  2  3  1  0  0  0
  2 21  1  0  0  0
  2 22  1  0  0  0
  3  4  1  0  0  0
  4  5  2  0  0  0
  4 17  1  0  0  0
  5  6  1  0  0  0
  5 23  1  0  0  0
  6  7  2  0  0  0
  6 24  1  0  0  0
  7  8  1  0  0  0
  7 25  1  0  0  0
  8  9  1  0  0  0
  8 17  2  0  0  0
  9 10  1  0  0  0
  9 26  1  0  0  0
  9 42  1  0  0  0
 10 27  1  0  0  0
 10 28  1  0  0  0
 10 29  1  0  0  0
 11 12  1  0  0  0
 11 13  1  0  0  0
 11 30  1  0  0  0
 11 42  1  0  0  0
 12 31  1  0  0  0
 12 32  1  0  0  0
 12 33  1  0  0  0
 13 14  1  0  0  0
 13 34  1  0  0  0
 13 35  1  0  0  0
 14 15  1  0  0  0
 14 16  1  0  0  0
 14 36  1  0  0  0
 15 16  1  0  0  0
 15 37  1  0  0  0
 15 38  1  0  0  0
 16 39  1  0  0  0
 16 40  1  0  0  0
 17 41  1  0  0  0
 42 43  1  0  0  0
 42 44  1  0  0  0
M  CHG  1  42   1
M  END
> <energy>
68.9306

> <chiral flag>
0

> <version>
0

> <i_ionizer_Ion_state_n>
1

> <i_ionizer_Tot_Q>
1

> <s_ionizer_Ion_centers>
42

> <s_ionizer_Ion_types>
N5

> <s_ionizer_Ion_ctrs_in>
11

> <r_ionizer_Ionization_penalty>
0.000148807

> <r_ionizer_Ionization_penalty_charging>
0.000148807

> <r_ionizer_Ionization_penalty_neutral>
0

$$$$
